@<TRIPOS>MOLECULE
ZINC01530090
   59    61     0     0     0
SMALL
USER_CHARGES

@<TRIPOS>ATOM
      1 C1          0.2149    0.4146    3.2428 C.3       1 <0>        -0.1471
      2 C2         -0.9310    0.0418    2.3000 C.3       1 <0>        -0.0907
      3 C3         -0.3752   -0.6549    1.0848 C.2       1 <0>        -0.0350
      4 C4         -0.0909    0.0567   -0.0340 C.2       1 <0>        -0.0598
      5 C5          0.5818   -0.5991   -1.1768 C.ar      1 <0>        -0.0465
      6 C6          1.8872   -1.0747   -1.0412 C.ar      1 <0>        -0.0811
      7 C7          2.5084   -1.6907   -2.1064 C.ar      1 <0>        -0.1416
      8 C8          1.8416   -1.8279   -3.3169 C.ar      1 <0>         0.1105
      9 C9          0.5450   -1.3506   -3.4575 C.ar      1 <0>        -0.1448
     10 C10        -0.0851   -0.7389   -2.3951 C.ar      1 <0>        -0.0894
     11 O1          2.4590   -2.4310   -4.3661 O.3       1 <0>        -0.4987
     12 C11        -0.4535    1.4889   -0.1118 C.ar      1 <0>        -0.0467
     13 C12        -1.7948    1.8740   -0.0770 C.ar      1 <0>        -0.0676
     14 C13        -2.1284    3.2098   -0.1444 C.ar      1 <0>        -0.1995
     15 C14        -1.1326    4.1711   -0.2584 C.ar      1 <0>         0.1106
     16 C15         0.2027    3.7915   -0.2986 C.ar      1 <0>        -0.1371
     17 C16         0.5445    2.4582   -0.2259 C.ar      1 <0>        -0.0629
     18 O2         -1.4656    5.4863   -0.3303 O.3       1 <0>        -0.3296
     19 C17        -2.8574    5.8066   -0.2833 C.3       1 <0>         0.0236
     20 C18        -3.0351    7.3234   -0.3763 C.3       1 <0>         0.0032
     21 C19        -3.4295    7.2721   -2.7647 C.3       1 <0>        -0.0488
     22 C20        -2.5048    9.2577   -1.7328 C.3       1 <0>        -0.0426
     23 C21        -0.1412   -2.1064    1.1122 C.ar      1 <0>        -0.0537
     24 C22        -0.8810   -2.9537    0.2804 C.ar      1 <0>        -0.0974
     25 C23        -0.6518   -4.3130    0.3082 C.ar      1 <0>        -0.1167
     26 C24         0.2996   -4.8408    1.1637 C.ar      1 <0>        -0.1133
     27 C25         1.0317   -4.0098    1.9939 C.ar      1 <0>        -0.1178
     28 C26         0.8183   -2.6478    1.9743 C.ar      1 <0>        -0.1071
     29 H1          0.9678    0.9802    2.6937 H         1 <0>         0.0557
     30 H2         -0.1710    1.0226    4.0611 H         1 <0>         0.0602
     31 H3          0.6644   -0.4932    3.6452 H         1 <0>         0.0599
     32 H4         -1.4567    0.9456    1.9920 H         1 <0>         0.0759
     33 H5         -1.6236   -0.6236    2.8154 H         1 <0>         0.0744
     34 H6          2.4081   -0.9643   -0.1016 H         1 <0>         0.1244
     35 H7          3.5167   -2.0632   -2.0009 H         1 <0>         0.1299
     36 H8          0.0296   -1.4591   -4.4004 H         1 <0>         0.1286
     37 H9         -1.0937   -0.3686   -2.5050 H         1 <0>         0.1223
     38 H10         2.9541   -1.8239   -4.9330 H         1 <0>         0.3921
     39 H11        -2.5699    1.1267    0.0068 H         1 <0>         0.1316
     40 H12        -3.1657    3.5089   -0.1127 H         1 <0>         0.1281
     41 H13         0.9743    4.5421   -0.3866 H         1 <0>         0.1335
     42 H14         1.5832    2.1638   -0.2569 H         1 <0>         0.1350
     43 H15        -3.3686    5.3290   -1.1191 H         1 <0>         0.0864
     44 H16        -3.2813    5.4480    0.6547 H         1 <0>         0.1085
     45 H17        -4.0885    7.5742   -0.2515 H         1 <0>         0.1502
     46 H18        -2.4513    7.8064    0.4072 H         1 <0>         0.1409
     47 H19        -4.4526    7.6156   -2.6117 H         1 <0>         0.1255
     48 H20        -3.0649    7.6334   -3.7263 H         1 <0>         0.1253
     49 H21        -3.4065    6.1824   -2.7536 H         1 <0>         0.1192
     50 H22        -1.8096    9.6115   -0.9715 H         1 <0>         0.1228
     51 H23        -2.1598    9.5769   -2.7163 H         1 <0>         0.1239
     52 H24        -3.4944    9.6731   -1.5424 H         1 <0>         0.1240
     53 H25        -1.6269   -2.5438   -0.3845 H         1 <0>         0.1182
     54 H26        -1.2194   -4.9682   -0.3360 H         1 <0>         0.1230
     55 H27         0.4715   -5.9069    1.1838 H         1 <0>         0.1229
     56 H28         1.7718   -4.4294    2.6592 H         1 <0>         0.1240
     57 H29         1.3901   -2.0007    2.6230 H         1 <0>         0.1226
     58 N1         -2.5464    7.7807   -1.6942 N.4       1 <0>        -0.3999
     59 H30        -1.5980    7.4164   -1.8429 H         1 <0>         0.4385
@<TRIPOS>BOND
     1    1    2 1
     2    1   29 1
     3    1   30 1
     4    1   31 1
     5    2    3 1
     6    2   32 1
     7    2   33 1
     8    3    4 2
     9    3   23 1
    10    4    5 1
    11    4   12 1
    12    5   10 ar
    13    5    6 ar
    14    6    7 ar
    15    6   34 1
    16    7    8 ar
    17    7   35 1
    18    8    9 ar
    19    8   11 1
    20    9   10 ar
    21    9   36 1
    22   10   37 1
    23   11   38 1
    24   12   17 ar
    25   12   13 ar
    26   13   14 ar
    27   13   39 1
    28   14   15 ar
    29   14   40 1
    30   15   16 ar
    31   15   18 1
    32   16   17 ar
    33   16   41 1
    34   17   42 1
    35   18   19 1
    36   19   20 1
    37   19   43 1
    38   19   44 1
    39   20   45 1
    40   20   46 1
    41   20   58 1
    42   21   47 1
    43   21   48 1
    44   21   49 1
    45   21   58 1
    46   22   50 1
    47   22   51 1
    48   22   52 1
    49   22   58 1
    50   23   28 ar
    51   23   24 ar
    52   24   25 ar
    53   24   53 1
    54   25   26 ar
    55   25   54 1
    56   26   27 ar
    57   26   55 1
    58   27   28 ar
    59   27   56 1
    60   28   57 1
    61   58   59 1
@<TRIPOS>MOLECULE
ZINC01530602
   58    60     0     0     0
SMALL
USER_CHARGES

@<TRIPOS>ATOM
      1 C1         -5.1420    2.1100    8.1781 C.3       1 <0>        -0.1867
      2 C2         -5.9280    1.1204    7.3156 C.3       1 <0>        -0.0166
      3 C3         -7.9288    1.4277    8.6441 C.3       1 <0>        -0.0111
      4 C4         -7.9635   -0.0317    9.1021 C.3       1 <0>        -0.1884
      5 C5         -7.5205    2.8459    6.7245 C.3       1 <0>        -0.0017
      6 C6         -7.1312    2.8226    5.2451 C.3       1 <0>         0.0254
      7 O1         -8.0380    1.9833    4.5271 O.3       1 <0>        -0.3282
      8 C7         -7.8311    1.8529    3.1906 C.ar      1 <0>         0.1169
      9 C8         -8.6762    1.0519    2.4339 C.ar      1 <0>        -0.1385
     10 C9         -8.4696    0.9170    1.0777 C.ar      1 <0>        -0.0547
     11 C10        -7.4092    1.5870    0.4650 C.ar      1 <0>        -0.0619
     12 C11        -6.5587    2.3870    1.2300 C.ar      1 <0>        -0.0546
     13 C12        -6.7753    2.5214    2.5847 C.ar      1 <0>        -0.2006
     14 C13        -7.1837    1.4446   -0.9901 C.2       1 <0>        -0.0363
     15 C14        -8.1054    1.9134   -1.8686 C.2       1 <0>         0.0012
     16 C15        -7.9454    1.6584   -3.3088 C.ar      1 <0>        -0.0661
     17 C16        -8.0882    2.7030   -4.2278 C.ar      1 <0>        -0.0920
     18 C17        -7.9325    2.4568   -5.5755 C.ar      1 <0>        -0.1201
     19 C18        -7.6457    1.1779   -6.0204 C.ar      1 <0>        -0.1015
     20 C19        -7.5076    0.1379   -5.1177 C.ar      1 <0>        -0.1199
     21 C20        -7.6555    0.3689   -3.7664 C.ar      1 <0>        -0.0828
     22 Cl1        -9.4733    2.8143   -1.2932 Cl        1 <0>        -0.0563
     23 C21        -5.9530    0.7908   -1.4875 C.ar      1 <0>        -0.0418
     24 C22        -5.7451   -0.5715   -1.2673 C.ar      1 <0>        -0.1050
     25 C23        -4.5929   -1.1738   -1.7288 C.ar      1 <0>        -0.1172
     26 C24        -3.6498   -0.4326   -2.4184 C.ar      1 <0>        -0.1110
     27 C25        -3.8525    0.9172   -2.6449 C.ar      1 <0>        -0.1142
     28 C26        -4.9978    1.5327   -2.1838 C.ar      1 <0>        -0.0958
     29 H1         -4.0878    1.8327    8.1801 H         1 <0>         0.1069
     30 H2         -5.2526    3.1148    7.7705 H         1 <0>         0.0792
     31 H3         -5.5255    2.0874    9.1981 H         1 <0>         0.0821
     32 H4         -5.8285    0.1176    7.7311 H         1 <0>         0.1321
     33 H5         -5.5354    1.1330    6.2989 H         1 <0>         0.1260
     34 H6         -7.3225    2.0116    9.3367 H         1 <0>         0.1327
     35 H7         -8.9431    1.8264    8.6241 H         1 <0>         0.1295
     36 H8         -8.4736   -0.6360    8.3519 H         1 <0>         0.0800
     37 H9         -6.9444   -0.3964    9.2308 H         1 <0>         0.0802
     38 H10        -8.4971   -0.1025   10.0499 H         1 <0>         0.1065
     39 H11        -6.8850    3.5540    7.2563 H         1 <0>         0.1513
     40 H12        -8.5629    3.1493    6.8213 H         1 <0>         0.1410
     41 H13        -6.1179    2.4345    5.1421 H         1 <0>         0.0862
     42 H14        -7.1756    3.8343    4.8417 H         1 <0>         0.1087
     43 H15        -9.4967    0.5342    2.9085 H         1 <0>         0.1354
     44 H16        -9.1276    0.2942    0.4898 H         1 <0>         0.1356
     45 H17        -5.7345    2.9034    0.7604 H         1 <0>         0.1311
     46 H18        -6.1206    3.1440    3.1764 H         1 <0>         0.1288
     47 H19        -8.3161    3.7007   -3.8825 H         1 <0>         0.1255
     48 H20        -8.0388    3.2630   -6.2862 H         1 <0>         0.1281
     49 H21        -7.5294    0.9905   -7.0776 H         1 <0>         0.1264
     50 H22        -7.2837   -0.8572   -5.4726 H         1 <0>         0.1268
     51 H23        -7.5482   -0.4438   -3.0633 H         1 <0>         0.1241
     52 H24        -6.4828   -1.1521   -0.7333 H         1 <0>         0.1212
     53 H25        -4.4288   -2.2270   -1.5552 H         1 <0>         0.1250
     54 H26        -2.7514   -0.9097   -2.7812 H         1 <0>         0.1243
     55 H27        -3.1127    1.4901   -3.1842 H         1 <0>         0.1253
     56 H28        -5.1550    2.5863   -2.3615 H         1 <0>         0.1210
     57 N1         -7.3597    1.4861    7.2813 N.4       1 <0>        -0.3969
     58 H29        -7.8600    0.8190    6.6821 H         1 <0>         0.4356
@<TRIPOS>BOND
     1    1    2 1
     2    1   29 1
     3    1   30 1
     4    1   31 1
     5    2   32 1
     6    2   33 1
     7    2   57 1
     8    3    4 1
     9    3   34 1
    10    3   35 1
    11    3   57 1
    12    4   36 1
    13    4   37 1
    14    4   38 1
    15    5    6 1
    16    5   39 1
    17    5   40 1
    18    5   57 1
    19    6    7 1
    20    6   41 1
    21    6   42 1
    22    7    8 1
    23    8   13 ar
    24    8    9 ar
    25    9   10 ar
    26    9   43 1
    27   10   11 ar
    28   10   44 1
    29   11   12 ar
    30   11   14 1
    31   12   13 ar
    32   12   45 1
    33   13   46 1
    34   14   15 2
    35   14   23 1
    36   15   16 1
    37   15   22 1
    38   16   21 ar
    39   16   17 ar
    40   17   18 ar
    41   17   47 1
    42   18   19 ar
    43   18   48 1
    44   19   20 ar
    45   19   49 1
    46   20   21 ar
    47   20   50 1
    48   21   51 1
    49   23   28 ar
    50   23   24 ar
    51   24   25 ar
    52   24   52 1
    53   25   26 ar
    54   25   53 1
    55   26   27 ar
    56   26   54 1
    57   27   28 ar
    58   27   55 1
    59   28   56 1
    60   57   58 1
@<TRIPOS>MOLECULE
ZINC01530690
   58    60     0     0     0
SMALL
USER_CHARGES

@<TRIPOS>ATOM
      1 C1         -0.7345    1.9962    1.2691 C.3       1 <0>        -0.1480
      2 C2         -0.0184    1.5028    0.0103 C.3       1 <0>        -0.0915
      3 C3          0.0021   -0.0041    0.0020 C.2       1 <0>        -0.0372
      4 C4          1.0799   -0.6700    0.4844 C.2       1 <0>        -0.0587
      5 C5          1.1000   -2.1497    0.4762 C.ar      1 <0>        -0.0382
      6 C6          0.1963   -2.8671    1.2612 C.ar      1 <0>        -0.0978
      7 C7          0.2161   -4.2465    1.2443 C.ar      1 <0>        -0.1157
      8 C8          1.1375   -4.9185    0.4609 C.ar      1 <0>        -0.1158
      9 C9          2.0399   -4.2132   -0.3152 C.ar      1 <0>        -0.1189
     10 C10         2.0264   -2.8336   -0.3120 C.ar      1 <0>        -0.1076
     11 C11         2.2361    0.0825    1.0188 C.ar      1 <0>        -0.0462
     12 C12         3.0012    0.8850    0.1708 C.ar      1 <0>        -0.0684
     13 C13         4.0738    1.5895    0.6738 C.ar      1 <0>        -0.1995
     14 C14         4.4010    1.4923    2.0200 C.ar      1 <0>         0.1103
     15 C15         3.6460    0.6900    2.8656 C.ar      1 <0>        -0.1368
     16 C16         2.5681   -0.0127    2.3714 C.ar      1 <0>        -0.0625
     17 O1          5.4622    2.1841    2.5110 O.3       1 <0>        -0.3296
     18 C17         6.1953    2.9900    1.5863 C.3       1 <0>         0.0236
     19 C18         7.3444    3.6875    2.3170 C.3       1 <0>         0.0033
     20 C19         8.9612    2.0028    1.6762 C.3       1 <0>        -0.0487
     21 C20         9.2878    3.2849    3.7041 C.3       1 <0>        -0.0426
     22 C21        -1.1472   -0.7521   -0.5293 C.ar      1 <0>        -0.0519
     23 C22        -1.0059   -1.5336   -1.6809 C.ar      1 <0>        -0.0969
     24 C23        -2.0868   -2.2365   -2.1694 C.ar      1 <0>        -0.1167
     25 C24        -3.3120   -2.1613   -1.5301 C.ar      1 <0>        -0.1142
     26 C25        -3.4615   -1.3858   -0.3934 C.ar      1 <0>        -0.1179
     27 C26        -2.3889   -0.6814    0.1110 C.ar      1 <0>        -0.1081
     28 H1         -0.7493    3.0861    1.2751 H         1 <0>         0.0598
     29 H2         -1.7571    1.6189    1.2768 H         1 <0>         0.0602
     30 H3         -0.2073    1.6351    2.1522 H         1 <0>         0.0551
     31 H4          1.0042    1.8801    0.0026 H         1 <0>         0.0764
     32 H5         -0.5455    1.8639   -0.8728 H         1 <0>         0.0750
     33 H6         -0.5201   -2.3436    1.8768 H         1 <0>         0.1189
     34 H7         -0.4859   -4.8028    1.8477 H         1 <0>         0.1228
     35 H8          1.1521   -5.9984    0.4550 H         1 <0>         0.1220
     36 H9          2.7566   -4.7436   -0.9246 H         1 <0>         0.1218
     37 H10         2.7316   -2.2841   -0.9180 H         1 <0>         0.1169
     38 H11         2.7500    0.9577   -0.8771 H         1 <0>         0.1316
     39 H12         4.6634    2.2144    0.0193 H         1 <0>         0.1280
     40 H13         3.9036    0.6169    3.9119 H         1 <0>         0.1336
     41 H14         1.9810   -0.6358    3.0298 H         1 <0>         0.1350
     42 H15         6.5983    2.3588    0.7943 H         1 <0>         0.0863
     43 H16         5.5329    3.7389    1.1524 H         1 <0>         0.1084
     44 H17         7.8489    4.3699    1.6330 H         1 <0>         0.1502
     45 H18         6.9492    4.2483    3.1640 H         1 <0>         0.1408
     46 H19         9.4985    2.7355    1.0741 H         1 <0>         0.1254
     47 H20         9.6636    1.2635    2.0612 H         1 <0>         0.1254
     48 H21         8.2117    1.5058    1.0603 H         1 <0>         0.1192
     49 H22         8.7758    3.7199    4.5624 H         1 <0>         0.1228
     50 H23         9.9833    2.5184    4.0460 H         1 <0>         0.1239
     51 H24         9.8370    4.0640    3.1754 H         1 <0>         0.1240
     52 H25        -0.0516   -1.5894   -2.1836 H         1 <0>         0.1181
     53 H26        -1.9783   -2.8435   -3.0560 H         1 <0>         0.1225
     54 H27        -4.1561   -2.7104   -1.9205 H         1 <0>         0.1226
     55 H28        -4.4210   -1.3320    0.0995 H         1 <0>         0.1238
     56 H29        -2.5072   -0.0765    0.9978 H         1 <0>         0.1227
     57 N1          8.2858    2.6619    2.8138 N.4       1 <0>        -0.3999
     58 H30         7.7611    1.9565    3.3443 H         1 <0>         0.4386
@<TRIPOS>BOND
     1    1    2 1
     2    1   28 1
     3    1   29 1
     4    1   30 1
     5    2    3 1
     6    2   31 1
     7    2   32 1
     8    3    4 2
     9    3   22 1
    10    4    5 1
    11    4   11 1
    12    5   10 ar
    13    5    6 ar
    14    6    7 ar
    15    6   33 1
    16    7    8 ar
    17    7   34 1
    18    8    9 ar
    19    8   35 1
    20    9   10 ar
    21    9   36 1
    22   10   37 1
    23   11   16 ar
    24   11   12 ar
    25   12   13 ar
    26   12   38 1
    27   13   14 ar
    28   13   39 1
    29   14   15 ar
    30   14   17 1
    31   15   16 ar
    32   15   40 1
    33   16   41 1
    34   17   18 1
    35   18   19 1
    36   18   42 1
    37   18   43 1
    38   19   44 1
    39   19   45 1
    40   19   57 1
    41   20   46 1
    42   20   47 1
    43   20   48 1
    44   20   57 1
    45   21   49 1
    46   21   50 1
    47   21   51 1
    48   21   57 1
    49   22   27 ar
    50   22   23 ar
    51   23   24 ar
    52   23   52 1
    53   24   25 ar
    54   24   53 1
    55   25   26 ar
    56   25   54 1
    57   26   27 ar
    58   26   55 1
    59   27   56 1
    60   57   58 1
@<TRIPOS>MOLECULE
ZINC01531019
   58    60     0     0     0
SMALL
USER_CHARGES

@<TRIPOS>ATOM
      1 C1         -1.4774    9.8596    6.0869 C.3       1 <0>        -0.0473
      2 C2         -3.1652    9.5220    7.7898 C.3       1 <0>        -0.0427
      3 C3         -3.7624    9.3767    5.4478 C.3       1 <0>         0.0029
      4 C4         -3.4829    8.5301    4.2045 C.3       1 <0>         0.0244
      5 O1         -3.5523    7.1443    4.5463 O.3       1 <0>        -0.3304
      6 C5         -3.3270    6.2507    3.5481 C.ar      1 <0>         0.1131
      7 C6         -3.3795    4.8885    3.8130 C.ar      1 <0>        -0.1380
      8 C7         -3.1514    3.9788    2.8029 C.ar      1 <0>        -0.0618
      9 C8         -2.8674    4.4283    1.5122 C.ar      1 <0>        -0.0507
     10 C9         -2.8098    5.7984    1.2511 C.ar      1 <0>        -0.0575
     11 C10        -3.0451    6.7019    2.2652 C.ar      1 <0>        -0.1978
     12 C11        -2.6220    3.4553    0.4252 C.2       1 <0>        -0.0375
     13 C12        -3.4795    3.3785   -0.6221 C.2       1 <0>        -0.0515
     14 C13        -3.1556    2.4929   -1.7976 C.3       1 <0>        -0.0971
     15 C14        -2.4331    3.3117   -2.8693 C.3       1 <0>        -0.0280
     16 Cl1        -1.9142    2.2229   -4.2094 Cl        1 <0>        -0.1736
     17 C15        -4.7255    4.1594   -0.6110 C.ar      1 <0>        -0.0490
     18 C16        -5.7192    3.8847    0.3345 C.ar      1 <0>        -0.0970
     19 C17        -6.8822    4.6252    0.3419 C.ar      1 <0>        -0.1170
     20 C18        -7.0728    5.6305   -0.5901 C.ar      1 <0>        -0.1157
     21 C19        -6.0969    5.9048   -1.5326 C.ar      1 <0>        -0.1165
     22 C20        -4.9259    5.1772   -1.5497 C.ar      1 <0>        -0.1095
     23 C21        -1.4407    2.5658    0.4811 C.ar      1 <0>        -0.0492
     24 C22        -1.6078    1.1856    0.6010 C.ar      1 <0>        -0.1058
     25 C23        -0.5023    0.3622    0.6578 C.ar      1 <0>        -0.1145
     26 C24         0.7699    0.9013    0.5857 C.ar      1 <0>        -0.1119
     27 C25         0.9424    2.2686    0.4620 C.ar      1 <0>        -0.1164
     28 C26        -0.1549    3.1032    0.4093 C.ar      1 <0>        -0.1045
     29 H1         -1.6802   10.9293    6.0356 H         1 <0>         0.1256
     30 H2         -0.7145    9.6702    6.8420 H         1 <0>         0.1249
     31 H3         -1.1234    9.5100    5.1171 H         1 <0>         0.1187
     32 H4         -3.9874    8.8726    8.0905 H         1 <0>         0.1228
     33 H5         -2.3416    9.4159    8.4959 H         1 <0>         0.1238
     34 H6         -3.5048   10.5577    7.7807 H         1 <0>         0.1241
     35 H7         -3.7765   10.4316    5.1735 H         1 <0>         0.1504
     36 H8         -4.7287    9.0976    5.8678 H         1 <0>         0.1411
     37 H9         -2.4880    8.7610    3.8238 H         1 <0>         0.0856
     38 H10        -4.2257    8.7531    3.4386 H         1 <0>         0.1085
     39 H11        -3.5997    4.5414    4.8118 H         1 <0>         0.1332
     40 H12        -3.1928    2.9195    3.0096 H         1 <0>         0.1346
     41 H13        -2.5859    6.1501    0.2548 H         1 <0>         0.1277
     42 H14        -3.0059    7.7621    2.0629 H         1 <0>         0.1269
     43 H15        -2.5133    1.6753   -1.4705 H         1 <0>         0.0960
     44 H16        -4.0785    2.0866   -2.2116 H         1 <0>         0.0866
     45 H17        -3.1074    4.0736   -3.2605 H         1 <0>         0.0925
     46 H18        -1.5578    3.7915   -2.4313 H         1 <0>         0.0920
     47 H19        -5.5739    3.0973    1.0594 H         1 <0>         0.1203
     48 H20        -7.6485    4.4171    1.0739 H         1 <0>         0.1226
     49 H21        -7.9880    6.2038   -0.5822 H         1 <0>         0.1221
     50 H22        -6.2533    6.6906   -2.2568 H         1 <0>         0.1241
     51 H23        -4.1655    5.3921   -2.2859 H         1 <0>         0.1211
     52 H24        -2.6004    0.7632    0.6532 H         1 <0>         0.1238
     53 H25        -0.6303   -0.7058    0.7543 H         1 <0>         0.1265
     54 H26         1.6321    0.2522    0.6265 H         1 <0>         0.1246
     55 H27         1.9380    2.6832    0.4062 H         1 <0>         0.1240
     56 H28        -0.0190    4.1703    0.3124 H         1 <0>         0.1187
     57 N1         -2.7035    9.1161    6.4457 N.4       1 <0>        -0.4005
     58 H29        -2.4936    8.1111    6.4545 H         1 <0>         0.4383
@<TRIPOS>BOND
     1    1   29 1
     2    1   30 1
     3    1   31 1
     4    1   57 1
     5    2   32 1
     6    2   33 1
     7    2   34 1
     8    2   57 1
     9    3    4 1
    10    3   35 1
    11    3   36 1
    12    3   57 1
    13    4    5 1
    14    4   37 1
    15    4   38 1
    16    5    6 1
    17    6   11 ar
    18    6    7 ar
    19    7    8 ar
    20    7   39 1
    21    8    9 ar
    22    8   40 1
    23    9   10 ar
    24    9   12 1
    25   10   11 ar
    26   10   41 1
    27   11   42 1
    28   12   13 2
    29   12   23 1
    30   13   14 1
    31   13   17 1
    32   14   15 1
    33   14   43 1
    34   14   44 1
    35   15   16 1
    36   15   45 1
    37   15   46 1
    38   17   22 ar
    39   17   18 ar
    40   18   19 ar
    41   18   47 1
    42   19   20 ar
    43   19   48 1
    44   20   21 ar
    45   20   49 1
    46   21   22 ar
    47   21   50 1
    48   22   51 1
    49   23   28 ar
    50   23   24 ar
    51   24   25 ar
    52   24   52 1
    53   25   26 ar
    54   25   53 1
    55   26   27 ar
    56   26   54 1
    57   27   28 ar
    58   27   55 1
    59   28   56 1
    60   57   58 1
@<TRIPOS>MOLECULE
ZINC01543842
   66    70     0     0     0
SMALL
USER_CHARGES

@<TRIPOS>ATOM
      1 C1          0.8843   -0.7022    1.8458 C.ar      1 <0>        -0.0748
      2 C2          0.9499   -1.1513    3.1505 C.ar      1 <0>        -0.1988
      3 C3         -0.2176   -1.3656    3.8686 C.ar      1 <0>         0.1093
      4 C4         -1.4482   -1.1231    3.2758 C.ar      1 <0>        -0.1372
      5 C5         -1.5083   -0.6691    1.9725 C.ar      1 <0>        -0.0676
      6 C6         -0.3432   -0.4558    1.2591 C.ar      1 <0>        -0.0900
      7 C7         -0.4116    0.0400   -0.1624 C.3       1 <0>        -0.0561
      8 C8         -0.3946    1.5469   -0.1701 C.ar      1 <0>        -0.0501
      9 C9          0.8237    2.2399   -0.2410 C.ar      1 <0>        -0.0492
     10 C10         2.0485    1.5509   -0.3060 C.ar      1 <0>        -0.0956
     11 C11         3.2129    2.2499   -0.3742 C.ar      1 <0>        -0.1354
     12 C12         3.2118    3.6483   -0.3804 C.ar      1 <0>         0.1125
     13 C13         2.0408    4.3488   -0.3184 C.ar      1 <0>        -0.1331
     14 C14         0.8202    3.6579   -0.2476 C.ar      1 <0>        -0.0322
     15 C15        -0.4025    4.3509   -0.1833 C.ar      1 <0>        -0.1038
     16 C16        -1.5705    3.6616   -0.1153 C.ar      1 <0>        -0.0957
     17 C17        -1.5791    2.2571   -0.1133 C.ar      1 <0>        -0.0401
     18 C18        -2.8699    1.5299   -0.0445 C.ar      1 <0>        -0.0545
     19 C19        -3.2103    0.6155   -1.0402 C.ar      1 <0>        -0.0927
     20 C20        -4.4092   -0.0624   -0.9711 C.ar      1 <0>        -0.1423
     21 C21        -5.2812    0.1722    0.0835 C.ar      1 <0>         0.1100
     22 C22        -4.9474    1.0862    1.0738 C.ar      1 <0>        -0.1437
     23 C23        -3.7477    1.7636    1.0129 C.ar      1 <0>        -0.0891
     24 O1         -6.4639   -0.4937    0.1463 O.3       1 <0>        -0.5006
     25 O2          4.3915    4.3192   -0.4484 O.3       1 <0>        -0.5000
     26 O3         -0.1559   -1.8128    5.1505 O.3       1 <0>        -0.3293
     27 C24         1.1450   -2.0409    5.6961 C.3       1 <0>         0.0252
     28 C25         1.0136   -2.5377    7.1372 C.3       1 <0>         0.0029
     29 C26        -0.2046   -4.1573    8.4613 C.3       1 <0>        -0.0016
     30 C27        -0.9897   -5.4691    8.3911 C.3       1 <0>        -0.1482
     31 C28        -0.0512   -6.5973    7.9543 C.3       1 <0>        -0.1386
     32 C29         0.5706   -6.2385    6.6018 C.3       1 <0>        -0.1474
     33 C30         1.3105   -4.9044    6.7239 C.3       1 <0>        -0.0060
     34 H1          1.7928   -0.5394    1.2849 H         1 <0>         0.1292
     35 H2          1.9091   -1.3390    3.6099 H         1 <0>         0.1264
     36 H3         -2.3585   -1.2895    3.8326 H         1 <0>         0.1316
     37 H4         -2.4660   -0.4802    1.5105 H         1 <0>         0.1351
     38 H5         -1.3312   -0.3154   -0.6273 H         1 <0>         0.0976
     39 H6          0.4462   -0.3359   -0.7200 H         1 <0>         0.0875
     40 H7          2.0638    0.4710   -0.3020 H         1 <0>         0.1310
     41 H8          4.1513    1.7178   -0.4240 H         1 <0>         0.1307
     42 H9          2.0535    5.4287   -0.3236 H         1 <0>         0.1359
     43 H10        -0.4122    5.4309   -0.1884 H         1 <0>         0.1323
     44 H11        -2.5052    4.2004   -0.0662 H         1 <0>         0.1284
     45 H12        -2.5341    0.4353   -1.8628 H         1 <0>         0.1315
     46 H13        -4.6720   -0.7734   -1.7404 H         1 <0>         0.1330
     47 H14        -5.6277    1.2665    1.8930 H         1 <0>         0.1314
     48 H15        -3.4887    2.4747    1.7834 H         1 <0>         0.1283
     49 H16        -7.1937   -0.0422   -0.2995 H         1 <0>         0.3956
     50 H17         4.6843    4.5095   -1.3502 H         1 <0>         0.3950
     51 H18         1.6629   -2.7914    5.0989 H         1 <0>         0.0846
     52 H19         1.7128   -1.1106    5.6827 H         1 <0>         0.1084
     53 H20         2.0036   -2.6143    7.5867 H         1 <0>         0.1499
     54 H21         0.4079   -1.8353    7.7098 H         1 <0>         0.1410
     55 H22         0.5972   -4.2527    9.1935 H         1 <0>         0.1305
     56 H23        -0.8732   -3.3493    8.7582 H         1 <0>         0.1288
     57 H24        -1.8002   -5.3699    7.6691 H         1 <0>         0.0877
     58 H25        -1.4032   -5.6993    9.3730 H         1 <0>         0.1126
     59 H26        -0.6156   -7.5251    7.8611 H         1 <0>         0.0943
     60 H27         0.7377   -6.7237    8.6958 H         1 <0>         0.0820
     61 H28        -0.2153   -6.1514    5.8516 H         1 <0>         0.0874
     62 H29         1.2724   -7.0181    6.3057 H         1 <0>         0.1121
     63 H30         1.7423   -4.6390    5.7589 H         1 <0>         0.1247
     64 H31         2.1051   -4.9964    7.4644 H         1 <0>         0.1318
     65 N1          0.3473   -3.8563    7.1233 N.4       1 <0>        -0.3961
     66 H32        -0.4217   -3.8341    6.4432 H         1 <0>         0.4336
@<TRIPOS>BOND
     1    1    6 ar
     2    1    2 ar
     3    1   34 1
     4    2    3 ar
     5    2   35 1
     6    3    4 ar
     7    3   26 1
     8    4    5 ar
     9    4   36 1
    10    5    6 ar
    11    5   37 1
    12    6    7 1
    13    7    8 1
    14    7   38 1
    15    7   39 1
    16    8   17 ar
    17    8    9 ar
    18    9   14 ar
    19    9   10 ar
    20   10   11 ar
    21   10   40 1
    22   11   12 ar
    23   11   41 1
    24   12   13 ar
    25   12   25 1
    26   13   14 ar
    27   13   42 1
    28   14   15 ar
    29   15   16 ar
    30   15   43 1
    31   16   17 ar
    32   16   44 1
    33   17   18 1
    34   18   23 ar
    35   18   19 ar
    36   19   20 ar
    37   19   45 1
    38   20   21 ar
    39   20   46 1
    40   21   22 ar
    41   21   24 1
    42   22   23 ar
    43   22   47 1
    44   23   48 1
    45   24   49 1
    46   25   50 1
    47   26   27 1
    48   27   28 1
    49   27   51 1
    50   27   52 1
    51   28   53 1
    52   28   54 1
    53   28   65 1
    54   29   30 1
    55   29   55 1
    56   29   56 1
    57   29   65 1
    58   30   31 1
    59   30   57 1
    60   30   58 1
    61   31   32 1
    62   31   59 1
    63   31   60 1
    64   32   33 1
    65   32   61 1
    66   32   62 1
    67   33   63 1
    68   33   64 1
    69   33   65 1
    70   65   66 1
@<TRIPOS>MOLECULE
ZINC01545572
   67    72     0     0     0
SMALL
USER_CHARGES

@<TRIPOS>ATOM
      1 C1          1.8720    6.3870    7.2755 C.ar      1 <0>        -0.1080
      2 C2          0.7207    5.8432    6.7090 C.ar      1 <0>        -0.1134
      3 C3          0.3742    6.1228    5.4230 C.ar      1 <0>        -0.1037
      4 C4          1.1936    6.9638    4.6484 C.ar      1 <0>        -0.0536
      5 C5          0.8681    7.2683    3.3184 C.ar      1 <0>        -0.0719
      6 C6          1.7004    8.1016    2.5869 C.ar      1 <0>        -0.0268
      7 C7          2.8631    8.6399    3.1698 C.ar      1 <0>        -0.0968
      8 C8          3.1924    8.3554    4.4549 C.ar      1 <0>        -0.0964
      9 C9          2.3679    7.5127    5.2235 C.ar      1 <0>        -0.0405
     10 C10         2.6888    7.2049    6.5560 C.ar      1 <0>        -0.1075
     11 C11         1.3653    8.4261    1.1878 C.2       1 <0>        -0.0526
     12 C12         2.1904    8.3813    0.0721 C.2       1 <0>        -0.1641
     13 C13         1.6155    8.7551   -1.2222 C.ar      1 <0>        -0.0752
     14 C14         2.2508    8.7868   -2.4843 C.ar      1 <0>        -0.0616
     15 C15         1.5690    9.1603   -3.6001 C.ar      1 <0>        -0.1356
     16 C16         0.2266    9.5240   -3.5407 C.ar      1 <0>         0.1384
     17 C17        -0.4287    9.5047   -2.3198 C.ar      1 <0>        -0.1007
     18 C18         0.2580    9.1262   -1.1851 C.ar      1 <0>        -0.1027
     19 S1         -0.1979    8.9624    0.5217 S.3       1 <0>         0.0979
     20 O1         -0.4349    9.8940   -4.6691 O.3       1 <0>        -0.4887
     21 C19         3.5915    7.9735    0.1858 C.2       1 <0>         0.4625
     22 O2          4.4505    8.8045    0.4205 O.2       1 <0>        -0.4272
     23 C20         3.9638    6.5544    0.0161 C.ar      1 <0>        -0.1808
     24 C21         2.9967    5.6159   -0.3538 C.ar      1 <0>        -0.0194
     25 C22         3.3488    4.2945   -0.5157 C.ar      1 <0>        -0.2142
     26 C23         4.6619    3.8919   -0.3015 C.ar      1 <0>         0.1462
     27 C24         5.6257    4.8215    0.0716 C.ar      1 <0>        -0.1529
     28 C25         5.2827    6.1456    0.2305 C.ar      1 <0>        -0.0175
     29 O3          5.0038    2.5876   -0.4566 O.3       1 <0>        -0.3249
     30 C26         3.9453    1.6678   -0.7318 C.3       1 <0>         0.0225
     31 C27         4.5016    0.2427   -0.7561 C.3       1 <0>         0.0028
     32 C28         5.9533   -1.2323    0.4998 C.3       1 <0>        -0.0017
     33 C29         6.5763   -1.4725    1.8768 C.3       1 <0>        -0.1483
     34 C30         5.4669   -1.7751    2.8879 C.3       1 <0>        -0.1387
     35 C31         4.4769   -0.6072    2.9121 C.3       1 <0>        -0.1475
     36 C32         3.9147   -0.3922    1.5051 C.3       1 <0>        -0.0062
     37 H1          2.1226    6.1526    8.2995 H         1 <0>         0.1271
     38 H2          0.0922    5.1939    7.3005 H         1 <0>         0.1267
     39 H3         -0.5233    5.6980    4.9981 H         1 <0>         0.1292
     40 H4         -0.0230    6.8568    2.8679 H         1 <0>         0.1337
     41 H5          3.5010    9.2877    2.5868 H         1 <0>         0.1323
     42 H6          4.0878    8.7759    4.8883 H         1 <0>         0.1352
     43 H7          3.5800    7.6150    7.0077 H         1 <0>         0.1309
     44 H8          3.2917    8.5102   -2.5638 H         1 <0>         0.1271
     45 H9          2.0795    9.1754   -4.5517 H         1 <0>         0.1392
     46 H10        -1.4701    9.7842   -2.2573 H         1 <0>         0.1434
     47 H11        -0.8602    9.1605   -5.1340 H         1 <0>         0.3978
     48 H12         1.9754    5.9272   -0.5164 H         1 <0>         0.1370
     49 H13         2.6030    3.5693   -0.8059 H         1 <0>         0.1347
     50 H14         6.6449    4.5048    0.2368 H         1 <0>         0.1416
     51 H15         6.0322    6.8673    0.5200 H         1 <0>         0.1482
     52 H16         3.1839    1.7474    0.0441 H         1 <0>         0.0882
     53 H17         3.5032    1.9019   -1.7002 H         1 <0>         0.1121
     54 H18         3.7087   -0.4521   -1.0330 H         1 <0>         0.1516
     55 H19         5.3099    0.1806   -1.4847 H         1 <0>         0.1421
     56 H20         5.4202   -2.1281    0.1811 H         1 <0>         0.1310
     57 H21         6.7394   -1.0026   -0.2195 H         1 <0>         0.1293
     58 H22         7.1212   -0.5819    2.1900 H         1 <0>         0.0877
     59 H23         7.2615   -2.3186    1.8243 H         1 <0>         0.1131
     60 H24         5.9024   -1.9041    3.8787 H         1 <0>         0.0946
     61 H25         4.9467   -2.6877    2.5970 H         1 <0>         0.0822
     62 H26         4.9887    0.2970    3.2416 H         1 <0>         0.0874
     63 H27         3.6617   -0.8354    3.5987 H         1 <0>         0.1125
     64 H28         3.2202    0.4478    1.5160 H         1 <0>         0.1243
     65 H29         3.3913   -1.2920    1.1818 H         1 <0>         0.1325
     66 N1          5.0297   -0.0812    0.5853 N.4       1 <0>        -0.3968
     67 H30         5.5428    0.7313    0.9467 H         1 <0>         0.4331
@<TRIPOS>BOND
     1    1   10 ar
     2    1    2 ar
     3    1   37 1
     4    2    3 ar
     5    2   38 1
     6    3    4 ar
     7    3   39 1
     8    4    9 ar
     9    4    5 ar
    10    5    6 ar
    11    5   40 1
    12    6    7 ar
    13    6   11 1
    14    7    8 ar
    15    7   41 1
    16    8    9 ar
    17    8   42 1
    18    9   10 ar
    19   10   43 1
    20   11   19 1
    21   11   12 2
    22   12   13 1
    23   12   21 1
    24   13   18 ar
    25   13   14 ar
    26   14   15 ar
    27   14   44 1
    28   15   16 ar
    29   15   45 1
    30   16   17 ar
    31   16   20 1
    32   17   18 ar
    33   17   46 1
    34   18   19 1
    35   20   47 1
    36   21   22 2
    37   21   23 1
    38   23   28 ar
    39   23   24 ar
    40   24   25 ar
    41   24   48 1
    42   25   26 ar
    43   25   49 1
    44   26   27 ar
    45   26   29 1
    46   27   28 ar
    47   27   50 1
    48   28   51 1
    49   29   30 1
    50   30   31 1
    51   30   52 1
    52   30   53 1
    53   31   54 1
    54   31   55 1
    55   31   66 1
    56   32   33 1
    57   32   56 1
    58   32   57 1
    59   32   66 1
    60   33   34 1
    61   33   58 1
    62   33   59 1
    63   34   35 1
    64   34   60 1
    65   34   61 1
    66   35   36 1
    67   35   62 1
    68   35   63 1
    69   36   64 1
    70   36   65 1
    71   36   66 1
    72   66   67 1
@<TRIPOS>MOLECULE
ZINC01585847
   59    61     0     0     0
SMALL
USER_CHARGES

@<TRIPOS>ATOM
      1 C1          4.7766    5.6855   -1.2339 C.3       1 <0>        -0.1440
      2 C2          3.5319    5.1383   -1.9354 C.3       1 <0>        -0.0927
      3 C3          3.9303    4.0243   -2.8689 C.2       1 <0>        -0.0358
      4 C4          3.8862    2.7371   -2.4458 C.2       1 <0>        -0.0587
      5 C5          4.3897    1.6539   -3.3187 C.ar      1 <0>        -0.0469
      6 C6          3.7469    1.3717   -4.5253 C.ar      1 <0>        -0.0568
      7 C7          4.2217    0.3646   -5.3378 C.ar      1 <0>        -0.1971
      8 C8          5.3319   -0.3756   -4.9528 C.ar      1 <0>         0.1107
      9 C9          5.9712   -0.1010   -3.7508 C.ar      1 <0>        -0.1374
     10 C10         5.5053    0.9077   -2.9351 C.ar      1 <0>        -0.0680
     11 O1          5.7940   -1.3706   -5.7541 O.3       1 <0>        -0.3296
     12 C11         5.0893   -1.5997   -6.9760 C.3       1 <0>         0.0239
     13 C12         5.7510   -2.7493   -7.7385 C.3       1 <0>         0.0035
     14 C13         4.2004   -4.3984   -6.8790 C.3       1 <0>        -0.0488
     15 C14         6.4301   -5.0655   -7.5468 C.3       1 <0>        -0.0425
     16 C15         3.3343    2.4154   -1.1108 C.ar      1 <0>        -0.0204
     17 C16         1.9724    2.5855   -0.8565 C.ar      1 <0>        -0.1164
     18 C17         1.4612    2.2852    0.3893 C.ar      1 <0>        -0.0981
     19 C18         2.2933    1.8105    1.3867 C.ar      1 <0>        -0.1432
     20 C19         3.6499    1.6432    1.1444 C.ar      1 <0>         0.1102
     21 C20         4.1731    1.9417   -0.1026 C.ar      1 <0>        -0.1354
     22 O2          4.4639    1.1808    2.1296 O.3       1 <0>        -0.4997
     23 C21         4.3668    4.3335   -4.2387 C.ar      1 <0>        -0.0485
     24 C22         5.6819    4.0673   -4.6345 C.ar      1 <0>        -0.0983
     25 C23         6.0823    4.3566   -5.9218 C.ar      1 <0>        -0.1187
     26 C24         5.1896    4.9174   -6.8187 C.ar      1 <0>        -0.1174
     27 C25         3.8881    5.1882   -6.4334 C.ar      1 <0>        -0.1170
     28 C26         3.4709    4.9008   -5.1510 C.ar      1 <0>        -0.1070
     29 H1          5.5114    5.9871   -1.9804 H         1 <0>         0.0563
     30 H2          4.5017    6.5473   -0.6258 H         1 <0>         0.0623
     31 H3          5.2036    4.9119   -0.5957 H         1 <0>         0.0550
     32 H4          3.0553    5.9364   -2.5046 H         1 <0>         0.0746
     33 H5          2.8336    4.7561   -1.1908 H         1 <0>         0.0813
     34 H6          2.8810    1.9442   -4.8235 H         1 <0>         0.1279
     35 H7          3.7272    0.1481   -6.2733 H         1 <0>         0.1261
     36 H8          6.8343   -0.6788   -3.4547 H         1 <0>         0.1331
     37 H9          6.0030    1.1206   -2.0005 H         1 <0>         0.1334
     38 H10         4.0538   -1.8586   -6.7551 H         1 <0>         0.0860
     39 H11         5.1159   -0.6965   -7.5856 H         1 <0>         0.1080
     40 H12         5.2695   -2.8659   -8.7095 H         1 <0>         0.1500
     41 H13         6.8088   -2.5291   -7.8816 H         1 <0>         0.1407
     42 H14         3.8041   -4.5605   -7.8814 H         1 <0>         0.1254
     43 H15         4.1242   -5.3216   -6.3045 H         1 <0>         0.1254
     44 H16         3.6275   -3.6142   -6.3842 H         1 <0>         0.1192
     45 H17         7.4782   -4.7662   -7.5375 H         1 <0>         0.1227
     46 H18         6.3066   -5.9745   -6.9581 H         1 <0>         0.1239
     47 H19         6.1145   -5.2517   -8.5734 H         1 <0>         0.1239
     48 H20         1.3191    2.9518   -1.6345 H         1 <0>         0.1260
     49 H21         0.4073    2.4172    0.5849 H         1 <0>         0.1309
     50 H22         1.8870    1.5730    2.3588 H         1 <0>         0.1305
     51 H23         5.2276    1.8077   -0.2938 H         1 <0>         0.1265
     52 H24         4.8525    1.8765    2.6775 H         1 <0>         0.3941
     53 H25         6.3807    3.6333   -3.9348 H         1 <0>         0.1185
     54 H26         7.0963    4.1486   -6.2300 H         1 <0>         0.1207
     55 H27         5.5104    5.1452   -7.8244 H         1 <0>         0.1213
     56 H28         3.1977    5.6262   -7.1389 H         1 <0>         0.1242
     57 H29         2.4552    5.1134   -4.8517 H         1 <0>         0.1234
     58 N1          5.6188   -3.9878   -6.9426 N.4       1 <0>        -0.3999
     59 H30         5.9575   -3.8096   -5.9898 H         1 <0>         0.4386
@<TRIPOS>BOND
     1    1    2 1
     2    1   29 1
     3    1   30 1
     4    1   31 1
     5    2    3 1
     6    2   32 1
     7    2   33 1
     8    3    4 2
     9    3   23 1
    10    4    5 1
    11    4   16 1
    12    5   10 ar
    13    5    6 ar
    14    6    7 ar
    15    6   34 1
    16    7    8 ar
    17    7   35 1
    18    8    9 ar
    19    8   11 1
    20    9   10 ar
    21    9   36 1
    22   10   37 1
    23   11   12 1
    24   12   13 1
    25   12   38 1
    26   12   39 1
    27   13   40 1
    28   13   41 1
    29   13   58 1
    30   14   42 1
    31   14   43 1
    32   14   44 1
    33   14   58 1
    34   15   45 1
    35   15   46 1
    36   15   47 1
    37   15   58 1
    38   16   21 ar
    39   16   17 ar
    40   17   18 ar
    41   17   48 1
    42   18   19 ar
    43   18   49 1
    44   19   20 ar
    45   19   50 1
    46   20   21 ar
    47   20   22 1
    48   21   51 1
    49   22   52 1
    50   23   28 ar
    51   23   24 ar
    52   24   25 ar
    53   24   53 1
    54   25   26 ar
    55   25   54 1
    56   26   27 ar
    57   26   55 1
    58   27   28 ar
    59   27   56 1
    60   28   57 1
    61   58   59 1
@<TRIPOS>MOLECULE
ZINC01730387
   70    74     0     0     0
SMALL
USER_CHARGES

@<TRIPOS>ATOM
      1 C1         -4.5833   -0.6503   -0.4533 C.3       1 <0>        -0.1806
      2 C2         -4.6967    0.8671   -0.6128 C.3       1 <0>         0.1255
      3 C3         -3.3783    1.4291   -1.1598 C.3       1 <0>        -0.0682
      4 H1         -3.2042    1.0450   -2.1649 H         1 <0>         0.0997
      5 C4         -2.2444    0.9829   -0.2335 C.3       1 <0>         0.0098
      6 H2         -2.0666   -0.0842   -0.3669 H         1 <0>         0.0977
      7 C5         -2.6239    1.2529    1.2007 C.ar      1 <0>        -0.1929
      8 C6         -1.6247    1.2779    2.1602 C.ar      1 <0>        -0.0350
      9 C7         -1.9334    1.5178    3.4837 C.ar      1 <0>        -0.2384
     10 C8         -3.2519    1.7355    3.8587 C.ar      1 <0>         0.1686
     11 C9         -4.2528    1.7128    2.9024 C.ar      1 <0>        -0.1915
     12 C10        -3.9401    1.4726    1.5689 C.ar      1 <0>         0.1812
     13 O1         -4.9486    1.4670    0.6587 O.3       1 <0>        -0.3001
     14 O2         -3.5596    1.9709    5.1613 O.3       1 <0>        -0.3118
     15 C11        -2.4757    1.9797    6.0925 C.3       1 <0>         0.0268
     16 C12        -0.9902    1.7465   -0.5725 C.ar      1 <0>        -0.0902
     17 C13        -0.0020    1.1481   -1.3322 C.ar      1 <0>        -0.0741
     18 C14         1.1462    1.8479   -1.6491 C.ar      1 <0>        -0.1426
     19 C15         1.3098    3.1501   -1.1996 C.ar      1 <0>         0.1111
     20 C16         0.3193    3.7463   -0.4327 C.ar      1 <0>        -0.2008
     21 C17        -0.8270    3.0423   -0.1185 C.ar      1 <0>        -0.0501
     22 O3          2.4386    3.8405   -1.5097 O.3       1 <0>        -0.3279
     23 C18         2.5389    5.1766   -1.0130 C.3       1 <0>         0.0274
     24 C19         3.8678    5.7887   -1.4605 C.3       1 <0>         0.0091
     25 C20         2.6751    6.6390   -3.4054 C.3       1 <0>        -0.0117
     26 C21         3.0964    7.1327   -4.8123 C.3       1 <0>        -0.1461
     27 C22         4.5827    7.5098   -4.6155 C.3       1 <0>        -0.1466
     28 C23         5.0383    6.7167   -3.3766 C.3       1 <0>        -0.0106
     29 C24        -3.4433    2.9343   -1.1946 C.ar      1 <0>        -0.0672
     30 C25        -3.8712    3.6335   -0.0815 C.ar      1 <0>        -0.1219
     31 C26        -3.9267    5.0144   -0.1120 C.ar      1 <0>        -0.1218
     32 C27        -3.5634    5.6956   -1.2586 C.ar      1 <0>        -0.1214
     33 C28        -3.1401    4.9961   -2.3733 C.ar      1 <0>        -0.1241
     34 C29        -3.0805    3.6154   -2.3414 C.ar      1 <0>        -0.1094
     35 C30        -5.8386    1.2002   -1.5751 C.3       1 <0>        -0.1410
     36 H3         -5.5149   -1.0435   -0.0463 H         1 <0>         0.0738
     37 H4         -4.3911   -1.1045   -1.4253 H         1 <0>         0.0765
     38 H5         -3.7631   -0.8840    0.2255 H         1 <0>         0.0673
     39 H6         -0.5981    1.1084    1.8706 H         1 <0>         0.1248
     40 H7         -1.1499    1.5358    4.2268 H         1 <0>         0.1303
     41 H8         -5.2791    1.8823    3.1928 H         1 <0>         0.1415
     42 H9         -1.9778    1.0101    6.0798 H         1 <0>         0.0584
     43 H10        -1.7642    2.7572    5.8146 H         1 <0>         0.0563
     44 H11        -2.8584    2.1785    7.0936 H         1 <0>         0.1044
     45 H12        -0.1298    0.1343   -1.6819 H         1 <0>         0.1337
     46 H13         1.9160    1.3815   -2.2460 H         1 <0>         0.1308
     47 H14         0.4444    4.7599   -0.0813 H         1 <0>         0.1229
     48 H15        -1.5986    3.5061    0.4782 H         1 <0>         0.1324
     49 H16         1.7143    5.7726   -1.4042 H         1 <0>         0.0856
     50 H17         2.4932    5.1638    0.0760 H         1 <0>         0.1068
     51 H18         3.9844    6.7739   -1.0091 H         1 <0>         0.1460
     52 H19         4.6888    5.1449   -1.1450 H         1 <0>         0.1420
     53 H20         1.8228    5.9630   -3.4742 H         1 <0>         0.1356
     54 H21         2.4467    7.4826   -2.7540 H         1 <0>         0.1332
     55 H22         2.5127    8.0052   -5.1056 H         1 <0>         0.1160
     56 H23         2.9950    6.3345   -5.5475 H         1 <0>         0.0984
     57 H24         4.6809    8.5805   -4.4365 H         1 <0>         0.1035
     58 H25         5.1661    7.2163   -5.4882 H         1 <0>         0.1052
     59 H26         5.3455    7.4039   -2.5882 H         1 <0>         0.1310
     60 H27         5.8660    6.0575   -3.6378 H         1 <0>         0.1339
     61 H28        -4.1589    3.1011    0.8130 H         1 <0>         0.1493
     62 H29        -4.2571    5.5609    0.7590 H         1 <0>         0.1194
     63 H30        -3.6099    6.7743   -1.2835 H         1 <0>         0.1172
     64 H31        -2.8562    5.5283   -3.2692 H         1 <0>         0.1156
     65 H32        -2.7501    3.0689   -3.2124 H         1 <0>         0.1154
     66 H33        -5.9103    2.2814   -1.6935 H         1 <0>         0.0693
     67 H34        -5.6429    0.7408   -2.5440 H         1 <0>         0.0798
     68 H35        -6.7761    0.8157   -1.1734 H         1 <0>         0.0725
     69 N1          3.8807    5.9306   -2.9476 N.4       1 <0>        -0.3955
     70 H36         3.9178    4.9975   -3.3744 H         1 <0>         0.4363
@<TRIPOS>BOND
     1    1    2 1
     2    1   36 1
     3    1   37 1
     4    1   38 1
     5    2   13 1
     6    2    3 1
     7    2   35 1
     8    3    4 1
     9    3    5 1
    10    3   29 1
    11    5    6 1
    12    5    7 1
    13    5   16 1
    14    7   12 ar
    15    7    8 ar
    16    8    9 ar
    17    8   39 1
    18    9   10 ar
    19    9   40 1
    20   10   11 ar
    21   10   14 1
    22   11   12 ar
    23   11   41 1
    24   12   13 1
    25   14   15 1
    26   15   42 1
    27   15   43 1
    28   15   44 1
    29   16   21 ar
    30   16   17 ar
    31   17   18 ar
    32   17   45 1
    33   18   19 ar
    34   18   46 1
    35   19   20 ar
    36   19   22 1
    37   20   21 ar
    38   20   47 1
    39   21   48 1
    40   22   23 1
    41   23   24 1
    42   23   49 1
    43   23   50 1
    44   24   51 1
    45   24   52 1
    46   24   69 1
    47   25   26 1
    48   25   53 1
    49   25   54 1
    50   25   69 1
    51   26   27 1
    52   26   55 1
    53   26   56 1
    54   27   28 1
    55   27   57 1
    56   27   58 1
    57   28   59 1
    58   28   60 1
    59   28   69 1
    60   29   34 ar
    61   29   30 ar
    62   30   31 ar
    63   30   61 1
    64   31   32 ar
    65   31   62 1
    66   32   33 ar
    67   32   63 1
    68   33   34 ar
    69   33   64 1
    70   34   65 1
    71   35   66 1
    72   35   67 1
    73   35   68 1
    74   69   70 1
@<TRIPOS>MOLECULE
ZINC01914469
   62    65     0     0     0
SMALL
USER_CHARGES

@<TRIPOS>ATOM
      1 C1          0.0298   -3.2812   -1.7040 C.3       1 <0>        -0.0881
      2 C2          0.0227   -2.0977   -0.7710 C.2       1 <0>        -0.1419
      3 C3          0.0369   -2.1419    0.6903 C.ar      1 <0>        -0.0883
      4 C4          0.0594   -3.1809    1.6258 C.ar      1 <0>        -0.0921
      5 C5          0.0666   -2.8848    2.9738 C.ar      1 <0>         0.0785
      6 C6          0.0530   -1.5594    3.4015 C.ar      1 <0>        -0.1165
      7 C7          0.0317   -0.5277    2.4894 C.ar      1 <0>        -0.1163
      8 C8          0.0231   -0.8038    1.1264 C.ar      1 <0>         0.1003
      9 N1          0.0021   -0.0041    0.0020 N.pl3     1 <0>        -0.4770
     10 C9         -0.0034   -0.7892   -1.1273 C.2       1 <0>         0.1133
     11 C10        -0.0298   -0.2842   -2.5168 C.ar      1 <0>        -0.0360
     12 C11        -0.9068    0.7421   -2.8717 C.ar      1 <0>        -0.0957
     13 C12        -0.9246    1.2138   -4.1669 C.ar      1 <0>        -0.1422
     14 C13        -0.0795    0.6618   -5.1205 C.ar      1 <0>         0.1143
     15 C14         0.7906   -0.3629   -4.7726 C.ar      1 <0>        -0.1398
     16 C15         0.8181   -0.8365   -3.4782 C.ar      1 <0>        -0.0797
     17 O1         -0.1043    1.1253   -6.3975 O.3       1 <0>        -0.5005
     18 C16        -0.0178    1.4608    0.0101 C.3       1 <0>         0.1036
     19 C17         1.4176    1.9904   -0.0008 C.3       1 <0>        -0.1371
     20 C18         1.3968    3.5202    0.0076 C.3       1 <0>        -0.1164
     21 C19         2.8322    4.0498   -0.0032 C.3       1 <0>        -0.1170
     22 C20         2.8115    5.5796    0.0052 C.3       1 <0>        -0.1479
     23 C21         4.2469    6.1092   -0.0057 C.3       1 <0>        -0.0004
     24 C22         3.3882    8.0929    1.1149 C.3       1 <0>        -0.0086
     25 C23         3.8924    9.5467    1.2955 C.3       1 <0>        -0.1484
     26 C24         5.4136    9.4178    1.0522 C.3       1 <0>        -0.1474
     27 C25         5.5817    8.1252    0.2322 C.3       1 <0>        -0.0103
     28 O2          0.0876   -3.8912    3.8881 O.3       1 <0>        -0.4972
     29 H1         -0.9960   -3.5804   -1.9190 H         1 <0>         0.0676
     30 H2          0.5311   -3.0086   -2.6327 H         1 <0>         0.0679
     31 H3          0.5595   -4.1104   -1.2350 H         1 <0>         0.0682
     32 H4          0.0700   -4.2091    1.2955 H         1 <0>         0.1308
     33 H5          0.0596   -1.3385    4.4587 H         1 <0>         0.1325
     34 H6          0.0213    0.4962    2.8327 H         1 <0>         0.1208
     35 H7         -1.5678    1.1686   -2.1318 H         1 <0>         0.1264
     36 H8         -1.6000    2.0107   -4.4414 H         1 <0>         0.1323
     37 H9          1.4464   -0.7897   -5.5170 H         1 <0>         0.1357
     38 H10         1.4946   -1.6340   -3.2085 H         1 <0>         0.1366
     39 H11        -0.7313    0.6639   -6.9712 H         1 <0>         0.3971
     40 H12        -0.5450    1.8219   -0.8730 H         1 <0>         0.0930
     41 H13        -0.5280    1.8123    0.9069 H         1 <0>         0.0871
     42 H14         1.9448    1.6293    0.8823 H         1 <0>         0.0718
     43 H15         1.9278    1.6388   -0.8976 H         1 <0>         0.0724
     44 H16         0.8697    3.8813   -0.8754 H         1 <0>         0.0699
     45 H17         0.8867    3.8717    0.9044 H         1 <0>         0.0693
     46 H18         3.3594    3.6887    0.8798 H         1 <0>         0.0745
     47 H19         3.3424    3.6983   -0.9000 H         1 <0>         0.0750
     48 H20         2.2843    5.9407   -0.8779 H         1 <0>         0.0867
     49 H21         2.3013    5.9311    0.9020 H         1 <0>         0.0872
     50 H22         4.7740    5.7481    0.8774 H         1 <0>         0.1265
     51 H23         4.7571    5.7577   -0.9025 H         1 <0>         0.1305
     52 H24         2.3339    8.0829    0.8383 H         1 <0>         0.1364
     53 H25         3.5544    7.5125    2.0224 H         1 <0>         0.1328
     54 H26         3.6922    9.9016    2.3065 H         1 <0>         0.1154
     55 H27         3.4382   10.2071    0.5568 H         1 <0>         0.0979
     56 H28         5.9429    9.3351    2.0015 H         1 <0>         0.1028
     57 H29         5.7804   10.2747    0.4871 H         1 <0>         0.1046
     58 H30         6.1825    7.4070    0.7901 H         1 <0>         0.1301
     59 H31         6.0581    8.3501   -0.7220 H         1 <0>         0.1328
     60 H32        -0.7896   -4.1938    4.1602 H         1 <0>         0.3893
     61 N2          4.2321    7.6029    0.0136 N.4       1 <0>        -0.3966
     62 H33         3.8678    7.9475   -0.8823 H         1 <0>         0.4297
@<TRIPOS>BOND
     1    1    2 1
     2    1   29 1
     3    1   30 1
     4    1   31 1
     5    2   10 2
     6    2    3 1
     7    3    8 ar
     8    3    4 ar
     9    4    5 ar
    10    4   32 1
    11    5    6 ar
    12    5   28 1
    13    6    7 ar
    14    6   33 1
    15    7    8 ar
    16    7   34 1
    17    8    9 1
    18    9   10 1
    19    9   18 1
    20   10   11 1
    21   11   16 ar
    22   11   12 ar
    23   12   13 ar
    24   12   35 1
    25   13   14 ar
    26   13   36 1
    27   14   15 ar
    28   14   17 1
    29   15   16 ar
    30   15   37 1
    31   16   38 1
    32   17   39 1
    33   18   19 1
    34   18   40 1
    35   18   41 1
    36   19   20 1
    37   19   42 1
    38   19   43 1
    39   20   21 1
    40   20   44 1
    41   20   45 1
    42   21   22 1
    43   21   46 1
    44   21   47 1
    45   22   23 1
    46   22   48 1
    47   22   49 1
    48   23   50 1
    49   23   51 1
    50   23   61 1
    51   24   25 1
    52   24   52 1
    53   24   53 1
    54   24   61 1
    55   25   26 1
    56   25   54 1
    57   25   55 1
    58   26   27 1
    59   26   56 1
    60   26   57 1
    61   27   58 1
    62   27   59 1
    63   27   61 1
    64   28   60 1
    65   61   62 1
@<TRIPOS>MOLECULE
ZINC03793538
   66    70     0     0     0
SMALL
USER_CHARGES

@<TRIPOS>ATOM
      1 C1         -4.4222    7.8638    7.5367 C.3       1 <0>        -0.1177
      2 C2         -3.9934    6.4896    7.9827 C.2       1 <0>        -0.0311
      3 C3         -4.8206    5.4339    7.8640 C.2       1 <0>        -0.1333
      4 C4         -4.3595    4.0623    8.2816 C.3       1 <0>         0.1881
      5 H1         -5.2196    3.4795    8.6111 H         1 <0>         0.1324
      6 O1         -3.4149    4.1494    9.3475 O.3       1 <0>        -0.2945
      7 C5         -2.4077    5.0507    9.2219 C.ar      1 <0>         0.1494
      8 C6         -2.6566    6.2642    8.5604 C.ar      1 <0>        -0.1363
      9 C7         -1.6461    7.2156    8.4415 C.ar      1 <0>        -0.0532
     10 C8         -0.3965    6.9519    8.9644 C.ar      1 <0>        -0.1716
     11 C9         -0.1465    5.7452    9.6062 C.ar      1 <0>         0.1486
     12 C10        -1.1515    4.7952    9.7352 C.ar      1 <0>        -0.1767
     13 O2          1.0892    5.4929   10.1112 O.3       1 <0>        -0.4909
     14 C11        -3.7168    3.3754    7.1042 C.ar      1 <0>        -0.1284
     15 C12        -4.4663    2.5349    6.3020 C.ar      1 <0>        -0.0581
     16 C13        -3.8795    1.9040    5.2222 C.ar      1 <0>        -0.1382
     17 C14        -2.5370    2.1143    4.9430 C.ar      1 <0>         0.1167
     18 C15        -1.7857    2.9536    5.7528 C.ar      1 <0>        -0.1985
     19 C16        -2.3787    3.5869    6.8278 C.ar      1 <0>        -0.0698
     20 O3         -1.9574    1.4949    3.8812 O.3       1 <0>        -0.3278
     21 C17        -0.5713    1.7580    3.6540 C.3       1 <0>         0.0231
     22 C18        -0.0991    0.9786    2.4249 C.3       1 <0>         0.0044
     23 C19        -0.3503    0.7714    0.0261 C.3       1 <0>        -0.0020
     24 C20        -1.2346    1.1613   -1.1605 C.3       1 <0>        -0.1477
     25 C21        -1.1988    2.6816   -1.3396 C.3       1 <0>        -0.1387
     26 C22        -1.6650    3.3514   -0.0440 C.3       1 <0>        -0.1455
     27 C23        -0.7682    2.8980    1.1102 C.3       1 <0>        -0.0098
     28 C24        -6.1786    5.6215    7.3240 C.ar      1 <0>        -0.0511
     29 C25        -7.2937    5.3867    8.1335 C.ar      1 <0>        -0.0893
     30 C26        -8.5618    5.5681    7.6253 C.ar      1 <0>        -0.1399
     31 C27        -8.7329    5.9733    6.3079 C.ar      1 <0>         0.1124
     32 C28        -7.6282    6.2028    5.4981 C.ar      1 <0>        -0.1443
     33 C29        -6.3561    6.0292    5.9988 C.ar      1 <0>        -0.0859
     34 O4         -9.9853    6.1463    5.8099 O.3       1 <0>        -0.4983
     35 H2         -3.6142    8.5728    7.7167 H         1 <0>         0.0706
     36 H3         -4.6575    7.8435    6.4726 H         1 <0>         0.0763
     37 H4         -5.3052    8.1689    8.0983 H         1 <0>         0.0786
     38 H5         -1.8393    8.1538    7.9426 H         1 <0>         0.1389
     39 H6          0.3903    7.6862    8.8742 H         1 <0>         0.1373
     40 H7         -0.9510    3.8592   10.2353 H         1 <0>         0.1427
     41 H8          1.6882    5.0601    9.4875 H         1 <0>         0.3947
     42 H9         -5.5114    2.3713    6.5200 H         1 <0>         0.1374
     43 H10        -4.4655    1.2480    4.5956 H         1 <0>         0.1354
     44 H11        -0.7392    3.1154    5.5402 H         1 <0>         0.1274
     45 H12        -1.7953    4.2439    7.4559 H         1 <0>         0.1348
     46 H13         0.0052    1.4468    4.5251 H         1 <0>         0.1081
     47 H14        -0.4270    2.8251    3.4851 H         1 <0>         0.0878
     48 H15        -0.2810   -0.0852    2.5774 H         1 <0>         0.1403
     49 H16         0.9673    1.1472    2.2755 H         1 <0>         0.1499
     50 H17        -0.3850   -0.3091    0.1652 H         1 <0>         0.1292
     51 H18         0.6767    1.0797   -0.1696 H         1 <0>         0.1304
     52 H19        -0.8633    0.6795   -2.0649 H         1 <0>         0.1128
     53 H20        -2.2593    0.8412   -0.9714 H         1 <0>         0.0877
     54 H21        -0.1808    2.9977   -1.5672 H         1 <0>         0.0817
     55 H22        -1.8613    2.9679   -2.1564 H         1 <0>         0.0944
     56 H23        -1.6011    4.4343   -0.1507 H         1 <0>         0.1113
     57 H24        -2.6964    3.0657    0.1627 H         1 <0>         0.0877
     58 H25         0.2608    3.1961    0.9094 H         1 <0>         0.1308
     59 H26        -1.1065    3.3618    2.0368 H         1 <0>         0.1264
     60 H27        -7.1616    5.0676    9.1568 H         1 <0>         0.1301
     61 H28        -9.4239    5.3906    8.2511 H         1 <0>         0.1335
     62 H29        -7.7663    6.5182    4.4745 H         1 <0>         0.1300
     63 H30        -5.4976    6.2082    5.3684 H         1 <0>         0.1238
     64 H31       -10.3617    5.3517    5.4075 H         1 <0>         0.3934
     65 N1         -0.8664    1.4290    1.2454 N.4       1 <0>        -0.3938
     66 H32        -1.8524    1.1713    1.3707 H         1 <0>         0.4338
@<TRIPOS>BOND
     1    1    2 1
     2    1   35 1
     3    1   36 1
     4    1   37 1
     5    2    8 1
     6    2    3 2
     7    3    4 1
     8    3   28 1
     9    4    5 1
    10    4    6 1
    11    4   14 1
    12    6    7 1
    13    7   12 ar
    14    7    8 ar
    15    8    9 ar
    16    9   10 ar
    17    9   38 1
    18   10   11 ar
    19   10   39 1
    20   11   12 ar
    21   11   13 1
    22   12   40 1
    23   13   41 1
    24   14   19 ar
    25   14   15 ar
    26   15   16 ar
    27   15   42 1
    28   16   17 ar
    29   16   43 1
    30   17   18 ar
    31   17   20 1
    32   18   19 ar
    33   18   44 1
    34   19   45 1
    35   20   21 1
    36   21   22 1
    37   21   46 1
    38   21   47 1
    39   22   48 1
    40   22   49 1
    41   22   65 1
    42   23   24 1
    43   23   50 1
    44   23   51 1
    45   23   65 1
    46   24   25 1
    47   24   52 1
    48   24   53 1
    49   25   26 1
    50   25   54 1
    51   25   55 1
    52   26   27 1
    53   26   56 1
    54   26   57 1
    55   27   58 1
    56   27   59 1
    57   27   65 1
    58   28   33 ar
    59   28   29 ar
    60   29   30 ar
    61   29   60 1
    62   30   31 ar
    63   30   61 1
    64   31   32 ar
    65   31   34 1
    66   32   33 ar
    67   32   62 1
    68   33   63 1
    69   34   64 1
    70   65   66 1
@<TRIPOS>MOLECULE
ZINC03815450
   62    66     0     0     0
SMALL
USER_CHARGES

@<TRIPOS>ATOM
      1 C1         -2.9903    2.4606    3.4164 C.ar      1 <0>        -0.0744
      2 C2         -3.1814    2.1469    4.7439 C.ar      1 <0>        -0.1476
      3 C3         -2.4703    1.1027    5.3226 C.ar      1 <0>         0.1264
      4 C4         -1.5669    0.3676    4.5647 C.ar      1 <0>        -0.1384
      5 C5         -1.3725    0.6713    3.2353 C.ar      1 <0>        -0.0719
      6 C6         -2.0861    1.7207    2.6487 C.ar      1 <0>        -0.0424
      7 C7         -1.8812    2.0500    1.2263 C.2       1 <0>        -0.0555
      8 C8         -1.8534    1.1877    0.1378 C.2       1 <0>        -0.1621
      9 C9         -1.6312    1.7659   -1.1899 C.ar      1 <0>        -0.0746
     10 C10        -1.5630    1.0973   -2.4331 C.ar      1 <0>        -0.0604
     11 C11        -1.3519    1.7943   -3.5935 C.ar      1 <0>        -0.1361
     12 C12        -1.1927    3.1771   -3.5850 C.ar      1 <0>         0.1392
     13 C13        -1.2495    3.8599   -2.3807 C.ar      1 <0>        -0.1014
     14 C14        -1.4622    3.1631   -1.2097 C.ar      1 <0>        -0.1017
     15 S1         -1.5989    3.6485    0.4916 S.3       1 <0>         0.0968
     16 O1         -0.9841    3.8512   -4.7469 O.3       1 <0>        -0.4888
     17 C15        -2.0408   -0.2526    0.3116 C.2       1 <0>         0.4615
     18 O2         -1.0727   -0.9841    0.4188 O.2       1 <0>        -0.4280
     19 C16        -3.4037   -0.8199    0.3569 C.ar      1 <0>        -0.1816
     20 C17        -4.5155    0.0264    0.3457 C.ar      1 <0>        -0.0187
     21 C18        -5.7848   -0.5067    0.3818 C.ar      1 <0>        -0.2149
     22 C19        -5.9605   -1.8842    0.4415 C.ar      1 <0>         0.1468
     23 C20        -4.8571   -2.7292    0.4591 C.ar      1 <0>        -0.1520
     24 C21        -3.5847   -2.2042    0.4170 C.ar      1 <0>        -0.0178
     25 O3         -7.2130   -2.4055    0.4832 O.3       1 <0>        -0.3249
     26 C22        -8.3018   -1.4894    0.3512 C.3       1 <0>         0.0223
     27 C23        -9.6237   -2.2399    0.5248 C.3       1 <0>         0.0029
     28 C24       -10.6788   -3.8752    1.9646 C.3       1 <0>        -0.0015
     29 C25       -10.6325   -4.5051    3.3585 C.3       1 <0>        -0.1483
     30 C26       -10.9571   -3.4373    4.4068 C.3       1 <0>        -0.1387
     31 C27        -9.9588   -2.2838    4.2751 C.3       1 <0>        -0.1477
     32 C28       -10.0246   -1.7183    2.8545 C.3       1 <0>        -0.0061
     33 O4         -2.6584    0.8001    6.6329 O.3       1 <0>        -0.4990
     34 H1         -3.5404    3.2750    2.9685 H         1 <0>         0.1338
     35 H2         -3.8823    2.7158    5.3369 H         1 <0>         0.1368
     36 H3         -1.0161   -0.4428    5.0187 H         1 <0>         0.1380
     37 H4         -0.6697    0.0999    2.6472 H         1 <0>         0.1346
     38 H5         -1.6831    0.0246   -2.4693 H         1 <0>         0.1280
     39 H6         -1.3078    1.2612   -4.5317 H         1 <0>         0.1400
     40 H7         -1.1274    4.9327   -2.3590 H         1 <0>         0.1432
     41 H8         -1.7959    4.1472   -5.1811 H         1 <0>         0.3982
     42 H9         -4.3797    1.0970    0.3042 H         1 <0>         0.1366
     43 H10        -6.6447    0.1466    0.3683 H         1 <0>         0.1345
     44 H11        -4.9978   -3.7990    0.5056 H         1 <0>         0.1422
     45 H12        -2.7278   -2.8615    0.4300 H         1 <0>         0.1484
     46 H13        -8.2202   -0.7158    1.1147 H         1 <0>         0.0879
     47 H14        -8.2720   -1.0296   -0.6366 H         1 <0>         0.1124
     48 H15       -10.4550   -1.5561    0.3533 H         1 <0>         0.1515
     49 H16        -9.6733   -3.0592   -0.1925 H         1 <0>         0.1422
     50 H17       -11.6795   -3.4870    1.7746 H         1 <0>         0.1310
     51 H18       -10.4341   -4.6296    1.2168 H         1 <0>         0.1292
     52 H19        -9.6359   -4.9059    3.5438 H         1 <0>         0.0878
     53 H20       -11.3654   -5.3096    3.4195 H         1 <0>         0.1130
     54 H21       -10.8828   -3.8712    5.4040 H         1 <0>         0.0946
     55 H22       -11.9685   -3.0637    4.2466 H         1 <0>         0.0821
     56 H23        -8.9516   -2.6496    4.4748 H         1 <0>         0.0876
     57 H24       -10.2107   -1.5009    4.9904 H         1 <0>         0.1125
     58 H25        -9.3048   -0.9061    2.7532 H         1 <0>         0.1243
     59 H26       -11.0284   -1.3403    2.6605 H         1 <0>         0.1324
     60 H27        -2.1227    1.3292    7.2397 H         1 <0>         0.3991
     61 N1         -9.6785   -2.7887    1.8955 N.4       1 <0>        -0.3969
     62 H28        -8.7564   -3.1690    2.1394 H         1 <0>         0.4333
@<TRIPOS>BOND
     1    1    6 ar
     2    1    2 ar
     3    1   34 1
     4    2    3 ar
     5    2   35 1
     6    3    4 ar
     7    3   33 1
     8    4    5 ar
     9    4   36 1
    10    5    6 ar
    11    5   37 1
    12    6    7 1
    13    7   15 1
    14    7    8 2
    15    8    9 1
    16    8   17 1
    17    9   14 ar
    18    9   10 ar
    19   10   11 ar
    20   10   38 1
    21   11   12 ar
    22   11   39 1
    23   12   13 ar
    24   12   16 1
    25   13   14 ar
    26   13   40 1
    27   14   15 1
    28   16   41 1
    29   17   18 2
    30   17   19 1
    31   19   24 ar
    32   19   20 ar
    33   20   21 ar
    34   20   42 1
    35   21   22 ar
    36   21   43 1
    37   22   23 ar
    38   22   25 1
    39   23   24 ar
    40   23   44 1
    41   24   45 1
    42   25   26 1
    43   26   27 1
    44   26   46 1
    45   26   47 1
    46   27   48 1
    47   27   49 1
    48   27   61 1
    49   28   29 1
    50   28   50 1
    51   28   51 1
    52   28   61 1
    53   29   30 1
    54   29   52 1
    55   29   53 1
    56   30   31 1
    57   30   54 1
    58   30   55 1
    59   31   32 1
    60   31   56 1
    61   31   57 1
    62   32   58 1
    63   32   59 1
    64   32   61 1
    65   33   60 1
    66   61   62 1
@<TRIPOS>MOLECULE
ZINC03815451
   61    65     0     0     0
SMALL
USER_CHARGES

@<TRIPOS>ATOM
      1 C1         -5.7009    0.5147    0.1588 C.ar      1 <0>        -0.0774
      2 C2         -7.0595    0.2987    0.2492 C.ar      1 <0>        -0.1443
      3 C3         -7.9332    1.3761    0.3102 C.ar      1 <0>         0.1255
      4 C4         -7.4430    2.6749    0.2848 C.ar      1 <0>        -0.1419
      5 C5         -6.0855    2.9000    0.1994 C.ar      1 <0>        -0.0785
      6 C6         -5.2031    1.8193    0.1383 C.ar      1 <0>        -0.0336
      7 C7         -3.7480    2.0555    0.0462 C.2       1 <0>        -0.0862
      8 C8         -2.7501    1.1381   -0.0216 C.2       1 <0>         0.0594
      9 C9         -1.3727    1.6013   -0.1082 C.ar      1 <0>        -0.1085
     10 C10        -0.1862    0.8321   -0.1879 C.ar      1 <0>        -0.0485
     11 C11         1.0291    1.4336   -0.2697 C.ar      1 <0>        -0.1411
     12 C12         1.1549    2.8213   -0.2725 C.ar      1 <0>         0.1430
     13 C13         0.0172    3.6078   -0.1902 C.ar      1 <0>        -0.1023
     14 C14        -1.2198    3.0056   -0.1069 C.ar      1 <0>        -0.0968
     15 S1         -2.8825    3.6134    0.0111 S.3       1 <0>         0.1022
     16 O1          2.3828    3.3983   -0.3556 O.3       1 <0>        -0.4910
     17 O2         -3.0325   -0.1928   -0.0083 O.3       1 <0>        -0.2362
     18 C15        -3.0881   -0.8214    1.1957 C.ar      1 <0>         0.1001
     19 C16        -2.8546   -0.1078    2.3625 C.ar      1 <0>        -0.1460
     20 C17        -2.9154   -0.7457    3.5859 C.ar      1 <0>        -0.1604
     21 C18        -3.2005   -2.1018    3.6477 C.ar      1 <0>         0.0817
     22 C19        -3.4288   -2.8165    2.4811 C.ar      1 <0>        -0.1007
     23 C20        -3.3728   -2.1780    1.2577 C.ar      1 <0>        -0.1062
     24 O3         -3.2557   -2.7307    4.8521 O.3       1 <0>        -0.3276
     25 C21        -3.0102   -1.9332    6.0122 C.3       1 <0>         0.0246
     26 C22        -3.1146   -2.8075    7.2634 C.3       1 <0>         0.0035
     27 C23        -2.3659   -4.9382    8.1354 C.3       1 <0>        -0.0016
     28 C24        -1.3024   -6.0283    7.9854 C.3       1 <0>        -0.1480
     29 C25         0.0691   -5.4493    8.3438 C.3       1 <0>        -0.1387
     30 C26         0.3597   -4.2487    7.4390 C.3       1 <0>        -0.1473
     31 C27        -0.7520   -3.2102    7.6049 C.3       1 <0>        -0.0062
     32 O4         -9.2722    1.1588    0.3945 O.3       1 <0>        -0.4982
     33 H1         -5.0223   -0.3239    0.1073 H         1 <0>         0.1412
     34 H2         -7.4451   -0.7099    0.2693 H         1 <0>         0.1355
     35 H3         -8.1262    3.5101    0.3317 H         1 <0>         0.1385
     36 H4         -5.7051    3.9106    0.1793 H         1 <0>         0.1316
     37 H5         -0.2487   -0.2461   -0.1882 H         1 <0>         0.1311
     38 H6          1.9175    0.8228   -0.3336 H         1 <0>         0.1387
     39 H7          0.0991    4.6847   -0.1909 H         1 <0>         0.1446
     40 H8          2.6766    3.5691   -1.2609 H         1 <0>         0.4010
     41 H9         -2.6289    0.9473    2.3142 H         1 <0>         0.1329
     42 H10        -2.7377   -0.1894    4.4944 H         1 <0>         0.1303
     43 H11        -3.6507   -3.8724    2.5294 H         1 <0>         0.1427
     44 H12        -3.5509   -2.7344    0.3494 H         1 <0>         0.1474
     45 H13        -2.0107   -1.5026    5.9522 H         1 <0>         0.0842
     46 H14        -3.7482   -1.1328    6.0657 H         1 <0>         0.1084
     47 H15        -3.0160   -2.1837    8.1518 H         1 <0>         0.1499
     48 H16        -4.0825   -3.3085    7.2769 H         1 <0>         0.1415
     49 H17        -2.3881   -4.5922    9.1688 H         1 <0>         0.1304
     50 H18        -3.3416   -5.3434    7.8672 H         1 <0>         0.1291
     51 H19        -1.2891   -6.3845    6.9553 H         1 <0>         0.0877
     52 H20        -1.5334   -6.8574    8.6542 H         1 <0>         0.1126
     53 H21         0.8355   -6.2102    8.1967 H         1 <0>         0.0943
     54 H22         0.0692   -5.1288    9.3856 H         1 <0>         0.0820
     55 H23         0.3992   -4.5769    6.4003 H         1 <0>         0.0874
     56 H24         1.3159   -3.8059    7.7179 H         1 <0>         0.1120
     57 H25        -0.5555   -2.3603    6.9513 H         1 <0>         0.1245
     58 H26        -0.7817   -2.8724    8.6408 H         1 <0>         0.1318
     59 H27        -9.7158    1.0998   -0.4627 H         1 <0>         0.3980
     60 N1         -2.0416   -3.8224    7.2211 N.4       1 <0>        -0.3960
     61 H28        -1.9654   -4.1873    6.2644 H         1 <0>         0.4336
@<TRIPOS>BOND
     1    1    6 ar
     2    1    2 ar
     3    1   33 1
     4    2    3 ar
     5    2   34 1
     6    3    4 ar
     7    3   32 1
     8    4    5 ar
     9    4   35 1
    10    5    6 ar
    11    5   36 1
    12    6    7 1
    13    7   15 1
    14    7    8 2
    15    8    9 1
    16    8   17 1
    17    9   14 ar
    18    9   10 ar
    19   10   11 ar
    20   10   37 1
    21   11   12 ar
    22   11   38 1
    23   12   13 ar
    24   12   16 1
    25   13   14 ar
    26   13   39 1
    27   14   15 1
    28   16   40 1
    29   17   18 1
    30   18   23 ar
    31   18   19 ar
    32   19   20 ar
    33   19   41 1
    34   20   21 ar
    35   20   42 1
    36   21   22 ar
    37   21   24 1
    38   22   23 ar
    39   22   43 1
    40   23   44 1
    41   24   25 1
    42   25   26 1
    43   25   45 1
    44   25   46 1
    45   26   47 1
    46   26   48 1
    47   26   60 1
    48   27   28 1
    49   27   49 1
    50   27   50 1
    51   27   60 1
    52   28   29 1
    53   28   51 1
    54   28   52 1
    55   29   30 1
    56   29   53 1
    57   29   54 1
    58   30   31 1
    59   30   55 1
    60   30   56 1
    61   31   57 1
    62   31   58 1
    63   31   60 1
    64   32   59 1
    65   60   61 1
@<TRIPOS>MOLECULE
ZINC03815452
   64    68     0     0     0
SMALL
USER_CHARGES

@<TRIPOS>ATOM
      1 C1          3.0367   -2.5290    5.2273 C.3       1 <0>         0.0260
      2 O1          4.0511   -2.1419    4.2982 O.3       1 <0>        -0.3143
      3 C2          3.6680   -1.3552    3.2590 C.ar      1 <0>         0.1397
      4 C3          2.3402   -0.9653    3.1394 C.ar      1 <0>        -0.2124
      5 C4          1.9449   -0.1726    2.0824 C.ar      1 <0>        -0.0645
      6 C5          2.8832    0.2356    1.1355 C.ar      1 <0>        -0.0841
      7 C6          4.2159   -0.1523    1.2638 C.ar      1 <0>        -0.0285
      8 C7          4.5999   -0.9541    2.3167 C.ar      1 <0>        -0.1485
      9 C8          5.2298    0.3178    0.2543 C.3       1 <0>        -0.0819
     10 C9          4.5965    0.4023   -1.1318 C.3       1 <0>        -0.0783
     11 C10         3.3074    1.1765   -1.0834 C.2       1 <0>        -0.0588
     12 C11         2.4788    1.0718   -0.0158 C.2       1 <0>        -0.0375
     13 C12         1.1862    1.7911    0.0004 C.ar      1 <0>        -0.0471
     14 C13        -0.0126    1.0758    0.0080 C.ar      1 <0>        -0.0716
     15 C14        -1.2150    1.7496    0.0173 C.ar      1 <0>        -0.2001
     16 C15        -1.2348    3.1382    0.0297 C.ar      1 <0>         0.1113
     17 C16        -0.0443    3.8534    0.0222 C.ar      1 <0>        -0.1359
     18 C17         1.1621    3.1868    0.0076 C.ar      1 <0>        -0.0556
     19 O2         -2.4219    3.7988    0.0442 O.3       1 <0>        -0.3270
     20 C18        -3.6079    3.0016    0.0512 C.3       1 <0>         0.0268
     21 C19        -4.8358    3.9143    0.0673 C.3       1 <0>         0.0089
     22 C20        -4.8058    3.7847   -2.3638 C.3       1 <0>        -0.0118
     23 C21        -5.3948    4.6469   -3.5085 C.3       1 <0>        -0.1463
     24 C22        -6.5397    5.4148   -2.8089 C.3       1 <0>        -0.1468
     25 C23        -6.1812    5.3947   -1.3114 C.3       1 <0>        -0.0106
     26 C24         2.9432    2.0554   -2.2046 C.ar      1 <0>        -0.0448
     27 C25         1.8208    1.7670   -2.9883 C.ar      1 <0>        -0.1002
     28 C26         1.4829    2.5991   -4.0345 C.ar      1 <0>        -0.1204
     29 C27         2.2569    3.7113   -4.3168 C.ar      1 <0>        -0.1184
     30 C28         3.3722    4.0004   -3.5498 C.ar      1 <0>        -0.1159
     31 C29         3.7205    3.1813   -2.4969 C.ar      1 <0>        -0.1061
     32 H1          2.2611   -3.0898    4.7057 H         1 <0>         0.0566
     33 H2          3.4758   -3.1535    6.0053 H         1 <0>         0.1039
     34 H3          2.5995   -1.6388    5.6795 H         1 <0>         0.0565
     35 H4          1.6165   -1.2831    3.8754 H         1 <0>         0.1297
     36 H5          0.9126    0.1305    1.9883 H         1 <0>         0.1251
     37 H6          5.6312   -1.2593    2.4153 H         1 <0>         0.1357
     38 H7          6.0643   -0.3829    0.2278 H         1 <0>         0.0878
     39 H8          5.5948    1.3029    0.5449 H         1 <0>         0.0841
     40 H9          4.3965   -0.6051   -1.4968 H         1 <0>         0.0837
     41 H10         5.2883    0.8994   -1.8118 H         1 <0>         0.0841
     42 H11         0.0021   -0.0041    0.0020 H         1 <0>         0.1308
     43 H12        -2.1429    1.1970    0.0187 H         1 <0>         0.1269
     44 H13        -0.0638    4.9332    0.0275 H         1 <0>         0.1320
     45 H14         2.0875    3.7436    0.0014 H         1 <0>         0.1328
     46 H15        -3.6311    2.3770   -0.8417 H         1 <0>         0.0858
     47 H16        -3.6145    2.3680    0.9381 H         1 <0>         0.1075
     48 H17        -5.7372    3.3089    0.1622 H         1 <0>         0.1463
     49 H18        -4.7679    4.5999    0.9120 H         1 <0>         0.1421
     50 H19        -3.7687    3.5231   -2.5738 H         1 <0>         0.1356
     51 H20        -5.4061    2.8881   -2.2095 H         1 <0>         0.1333
     52 H21        -5.7853    4.0146   -4.3059 H         1 <0>         0.1160
     53 H22        -4.6462    5.3385   -3.8949 H         1 <0>         0.0985
     54 H23        -7.4914    4.9105   -2.9769 H         1 <0>         0.1034
     55 H24        -6.5849    6.4410   -3.1734 H         1 <0>         0.1052
     56 H25        -6.9537    4.8672   -0.7517 H         1 <0>         0.1312
     57 H26        -6.0807    6.4145   -0.9400 H         1 <0>         0.1339
     58 H27         1.2184    0.8971   -2.7720 H         1 <0>         0.1175
     59 H28         0.6146    2.3799   -4.6382 H         1 <0>         0.1183
     60 H29         1.9894    4.3568   -5.1403 H         1 <0>         0.1205
     61 H30         3.9710    4.8701   -3.7765 H         1 <0>         0.1245
     62 H31         4.5912    3.4080   -1.8995 H         1 <0>         0.1244
     63 N1         -4.9028    4.6898   -1.2078 N.4       1 <0>        -0.3958
     64 H32        -4.1309    5.3664   -1.2313 H         1 <0>         0.4366
@<TRIPOS>BOND
     1    1    2 1
     2    1   32 1
     3    1   33 1
     4    1   34 1
     5    2    3 1
     6    3    8 ar
     7    3    4 ar
     8    4    5 ar
     9    4   35 1
    10    5    6 ar
    11    5   36 1
    12    6   12 1
    13    6    7 ar
    14    7    8 ar
    15    7    9 1
    16    8   37 1
    17    9   10 1
    18    9   38 1
    19    9   39 1
    20   10   11 1
    21   10   40 1
    22   10   41 1
    23   11   12 2
    24   11   26 1
    25   12   13 1
    26   13   18 ar
    27   13   14 ar
    28   14   15 ar
    29   14   42 1
    30   15   16 ar
    31   15   43 1
    32   16   17 ar
    33   16   19 1
    34   17   18 ar
    35   17   44 1
    36   18   45 1
    37   19   20 1
    38   20   21 1
    39   20   46 1
    40   20   47 1
    41   21   48 1
    42   21   49 1
    43   21   63 1
    44   22   23 1
    45   22   50 1
    46   22   51 1
    47   22   63 1
    48   23   24 1
    49   23   52 1
    50   23   53 1
    51   24   25 1
    52   24   54 1
    53   24   55 1
    54   25   56 1
    55   25   57 1
    56   25   63 1
    57   26   31 ar
    58   26   27 ar
    59   27   28 ar
    60   27   58 1
    61   28   29 ar
    62   28   59 1
    63   29   30 ar
    64   29   60 1
    65   30   31 ar
    66   30   61 1
    67   31   62 1
    68   63   64 1
@<TRIPOS>MOLECULE
ZINC03815453
   65    70     0     0     0
SMALL
USER_CHARGES

@<TRIPOS>ATOM
      1 C1          0.0188    1.1291    0.1011 C.ar      1 <0>        -0.0601
      2 C2         -1.1941    1.7901    0.0845 C.ar      1 <0>        -0.1986
      3 C3         -1.2309    3.1726    0.1937 C.ar      1 <0>         0.1194
      4 C4         -0.0481    3.8888    0.3074 C.ar      1 <0>        -0.1364
      5 C5          1.1625    3.2235    0.3178 C.ar      1 <0>        -0.0665
      6 C6          1.1961    1.8451    0.2150 C.ar      1 <0>        -0.1316
      7 C7          2.5182    1.1219    0.2266 C.3       1 <0>         0.1863
      8 H1          2.3535    0.0755    0.4836 H         1 <0>         0.1346
      9 C8          3.1421    1.2053   -1.1410 C.ar      1 <0>        -0.1097
     10 C9          2.8881    0.2271   -2.1112 C.ar      1 <0>        -0.0338
     11 C10         2.0626   -0.8777   -1.8341 C.ar      1 <0>        -0.1020
     12 C11         1.8328   -1.8076   -2.7992 C.ar      1 <0>        -0.1262
     13 C12         2.4078   -1.6829   -4.0678 C.ar      1 <0>         0.1112
     14 C13         3.2158   -0.6241   -4.3703 C.ar      1 <0>        -0.1282
     15 C14         3.4749    0.3543   -3.3968 C.ar      1 <0>        -0.0374
     16 C15         4.3041    1.4554   -3.6794 C.ar      1 <0>        -0.0894
     17 C16         4.5474    2.3880   -2.7211 C.ar      1 <0>        -0.1016
     18 C17         3.9790    2.2670   -1.4459 C.ar      1 <0>        -0.0137
     19 C18         4.2550    3.2619   -0.3827 C.ar      1 <0>        -0.1319
     20 C19         4.8673    4.4760   -0.6628 C.ar      1 <0>        -0.0533
     21 C20         5.0954    5.3793    0.3562 C.ar      1 <0>        -0.1686
     22 C21         4.7210    5.0715    1.6580 C.ar      1 <0>         0.1501
     23 C22         4.1276    3.8510    1.9476 C.ar      1 <0>        -0.1730
     24 C23         3.9031    2.9365    0.9349 C.ar      1 <0>         0.1484
     25 O1          3.3718    1.7170    1.2027 O.3       1 <0>        -0.2936
     26 O2          4.9374    5.9704    2.6536 O.3       1 <0>        -0.4914
     27 O3          2.1590   -2.6276   -5.0124 O.3       1 <0>        -0.4994
     28 O4         -2.4231    3.8248    0.1828 O.3       1 <0>        -0.3281
     29 C24        -3.6000    3.0232    0.0629 C.3       1 <0>         0.0241
     30 C25        -4.8350    3.9263    0.0688 C.3       1 <0>         0.0033
     31 C26        -5.6853    5.9544   -0.9435 C.3       1 <0>        -0.0016
     32 C27        -5.5361    6.8908   -2.1447 C.3       1 <0>        -0.1481
     33 C28        -5.9274    6.1415   -3.4214 C.3       1 <0>        -0.1386
     34 C29        -5.0472    4.8966   -3.5633 C.3       1 <0>        -0.1475
     35 C30        -5.2106    4.0180   -2.3210 C.3       1 <0>        -0.0062
     36 H2          0.0477    0.0525    0.0206 H         1 <0>         0.1331
     37 H3         -2.1132    1.2307   -0.0093 H         1 <0>         0.1311
     38 H4         -0.0739    4.9655    0.3880 H         1 <0>         0.1345
     39 H5          2.0835    3.7806    0.4059 H         1 <0>         0.1388
     40 H6          1.6129   -0.9870   -0.8583 H         1 <0>         0.1292
     41 H7          1.1980   -2.6542   -2.5830 H         1 <0>         0.1336
     42 H8          3.6533   -0.5395   -5.3541 H         1 <0>         0.1380
     43 H9          4.7473    1.5598   -4.6587 H         1 <0>         0.1365
     44 H10         5.1847    3.2307   -2.9446 H         1 <0>         0.1337
     45 H11         5.1643    4.7129   -1.6738 H         1 <0>         0.1378
     46 H12         5.5656    6.3274    0.1406 H         1 <0>         0.1389
     47 H13         3.8420    3.6156    2.9622 H         1 <0>         0.1434
     48 H14         4.2035    6.5837    2.7962 H         1 <0>         0.3964
     49 H15         2.7906   -3.3599   -5.0123 H         1 <0>         0.3963
     50 H16        -3.5642    2.4626   -0.8712 H         1 <0>         0.0857
     51 H17        -3.6537    2.3289    0.9014 H         1 <0>         0.1100
     52 H18        -5.7349    3.3113    0.0673 H         1 <0>         0.1506
     53 H19        -4.8237    4.5515    0.9616 H         1 <0>         0.1414
     54 H20        -6.7236    5.6333   -0.8600 H         1 <0>         0.1308
     55 H21        -5.3937    6.4805   -0.0344 H         1 <0>         0.1290
     56 H22        -4.5008    7.2232   -2.2206 H         1 <0>         0.0874
     57 H23        -6.1878    7.7549   -2.0156 H         1 <0>         0.1129
     58 H24        -5.7813    6.7912   -4.2843 H         1 <0>         0.0945
     59 H25        -6.9740    5.8428   -3.3622 H         1 <0>         0.0822
     60 H26        -4.0042    5.1976   -3.6616 H         1 <0>         0.0871
     61 H27        -5.3497    4.3360   -4.4478 H         1 <0>         0.1124
     62 H28        -4.5743    3.1378   -2.4125 H         1 <0>         0.1245
     63 H29        -6.2512    3.7062   -2.2311 H         1 <0>         0.1323
     64 N1         -4.7948    4.7889   -1.1301 N.4       1 <0>        -0.3965
     65 H30        -3.8338    5.1229   -1.2685 H         1 <0>         0.4333
@<TRIPOS>BOND
     1    1    6 ar
     2    1    2 ar
     3    1   36 1
     4    2    3 ar
     5    2   37 1
     6    3    4 ar
     7    3   28 1
     8    4    5 ar
     9    4   38 1
    10    5    6 ar
    11    5   39 1
    12    6    7 1
    13    7    8 1
    14    7   25 1
    15    7    9 1
    16    9   18 ar
    17    9   10 ar
    18   10   15 ar
    19   10   11 ar
    20   11   12 ar
    21   11   40 1
    22   12   13 ar
    23   12   41 1
    24   13   14 ar
    25   13   27 1
    26   14   15 ar
    27   14   42 1
    28   15   16 ar
    29   16   17 ar
    30   16   43 1
    31   17   18 ar
    32   17   44 1
    33   18   19 1
    34   19   24 ar
    35   19   20 ar
    36   20   21 ar
    37   20   45 1
    38   21   22 ar
    39   21   46 1
    40   22   23 ar
    41   22   26 1
    42   23   24 ar
    43   23   47 1
    44   24   25 1
    45   26   48 1
    46   27   49 1
    47   28   29 1
    48   29   30 1
    49   29   50 1
    50   29   51 1
    51   30   52 1
    52   30   53 1
    53   30   64 1
    54   31   32 1
    55   31   54 1
    56   31   55 1
    57   31   64 1
    58   32   33 1
    59   32   56 1
    60   32   57 1
    61   33   34 1
    62   33   58 1
    63   33   59 1
    64   34   35 1
    65   34   60 1
    66   34   61 1
    67   35   62 1
    68   35   63 1
    69   35   64 1
    70   64   65 1
@<TRIPOS>MOLECULE
ZINC03815454
   65    69     0     0     0
SMALL
USER_CHARGES

@<TRIPOS>ATOM
      1 C1          7.7017    0.9802   -1.2862 C.ar      1 <0>        -0.0721
      2 C2          8.5157   -0.1025   -1.5576 C.ar      1 <0>        -0.1988
      3 C3          8.3253   -0.8383   -2.7182 C.ar      1 <0>         0.1083
      4 C4          7.3137   -0.4880   -3.6006 C.ar      1 <0>        -0.1376
      5 C5          6.4988    0.5920   -3.3219 C.ar      1 <0>        -0.0681
      6 C6          6.6906    1.3238   -2.1645 C.ar      1 <0>        -0.0889
      7 C7          5.8002    2.5016   -1.8629 C.3       1 <0>        -0.0358
      8 C8          4.5853    2.0317   -1.1050 C.2       1 <0>        -0.0662
      9 C9          3.4125    1.7161   -1.6696 C.2       1 <0>        -0.0798
     10 C10         2.4633    1.2947   -0.5722 C.3       1 <0>        -0.0532
     11 C11         3.2514    1.4103    0.7099 C.ar      1 <0>        -0.0793
     12 C12         4.5279    1.8575    0.3538 C.ar      1 <0>        -0.0740
     13 C13         5.4861    2.0582    1.3542 C.ar      1 <0>        -0.0809
     14 C14         5.1662    1.8153    2.6719 C.ar      1 <0>        -0.1450
     15 C15         3.8955    1.3719    3.0146 C.ar      1 <0>         0.1141
     16 C16         2.9404    1.1653    2.0256 C.ar      1 <0>        -0.1250
     17 O1          3.5874    1.1345    4.3164 O.3       1 <0>        -0.4972
     18 C17         3.1024    1.7701   -3.1090 C.ar      1 <0>        -0.0428
     19 C18         3.0498    3.0010   -3.7693 C.ar      1 <0>        -0.0873
     20 C19         2.7646    3.0459   -5.1167 C.ar      1 <0>        -0.1419
     21 C20         2.5187    1.8715   -5.8163 C.ar      1 <0>         0.1115
     22 C21         2.5645    0.6464   -5.1635 C.ar      1 <0>        -0.1441
     23 C22         2.8541    0.5909   -3.8174 C.ar      1 <0>        -0.0875
     24 O2          2.2327    1.9212   -7.1436 O.3       1 <0>        -0.5005
     25 O3          9.1280   -1.9006   -2.9899 O.3       1 <0>        -0.3300
     26 C23        10.1486   -2.2032   -2.0366 C.3       1 <0>         0.0254
     27 C24        10.9442   -3.4212   -2.5104 C.3       1 <0>         0.0032
     28 C25        12.0230   -4.3096   -4.4871 C.3       1 <0>        -0.0017
     29 C26        12.6203   -3.9292   -5.8438 C.3       1 <0>        -0.1481
     30 C27        13.8498   -3.0434   -5.6244 C.3       1 <0>        -0.1386
     31 C28        13.4407   -1.8060   -4.8207 C.3       1 <0>        -0.1474
     32 C29        12.8196   -2.2479   -3.4937 C.3       1 <0>        -0.0059
     33 H1          7.8525    1.5562   -0.3852 H         1 <0>         0.1282
     34 H2          9.3025   -0.3731   -0.8690 H         1 <0>         0.1262
     35 H3          7.1633   -1.0595   -4.5046 H         1 <0>         0.1317
     36 H4          5.7110    0.8649   -4.0084 H         1 <0>         0.1335
     37 H5          5.4875    2.9692   -2.7966 H         1 <0>         0.0885
     38 H6          6.3474    3.2256   -1.2593 H         1 <0>         0.0850
     39 H7          1.5996    1.9590   -0.5451 H         1 <0>         0.1067
     40 H8          2.1415    0.2648   -0.7270 H         1 <0>         0.1042
     41 H9          6.4755    2.4035    1.0932 H         1 <0>         0.1232
     42 H10         5.9070    1.9708    3.4423 H         1 <0>         0.1319
     43 H11         1.9536    0.8162    2.2918 H         1 <0>         0.1315
     44 H12         3.2301    1.9027    4.7824 H         1 <0>         0.3950
     45 H13         3.2362    3.9150   -3.2251 H         1 <0>         0.1299
     46 H14         2.7279    3.9961   -5.6286 H         1 <0>         0.1328
     47 H15         2.3726   -0.2642   -5.7116 H         1 <0>         0.1312
     48 H16         2.8896   -0.3622   -3.3106 H         1 <0>         0.1273
     49 H17         1.2895    2.0035   -7.3399 H         1 <0>         0.3955
     50 H18        10.8177   -1.3485   -1.9369 H         1 <0>         0.0847
     51 H19         9.6913   -2.4210   -1.0714 H         1 <0>         0.1083
     52 H20        11.6703   -3.7004   -1.7469 H         1 <0>         0.1498
     53 H21        10.2633   -4.2540   -2.6862 H         1 <0>         0.1408
     54 H22        12.7603   -4.8665   -3.9090 H         1 <0>         0.1305
     55 H23        11.1389   -4.9286   -4.6402 H         1 <0>         0.1288
     56 H24        11.8787   -3.3843   -6.4280 H         1 <0>         0.0876
     57 H25        12.9133   -4.8323   -6.3792 H         1 <0>         0.1126
     58 H26        14.2530   -2.7345   -6.5888 H         1 <0>         0.0943
     59 H27        14.6080   -3.6008   -5.0742 H         1 <0>         0.0820
     60 H28        12.7121   -1.2276   -5.3888 H         1 <0>         0.0874
     61 H29        14.3200   -1.1924   -4.6245 H         1 <0>         0.1121
     62 H30        12.5142   -1.3695   -2.9252 H         1 <0>         0.1246
     63 H31        13.5534   -2.8145   -2.9203 H         1 <0>         0.1317
     64 N1         11.6277   -3.0762   -3.7741 N.4       1 <0>        -0.3960
     65 H32        10.9823   -2.5412   -4.3669 H         1 <0>         0.4337
@<TRIPOS>BOND
     1    1    6 ar
     2    1    2 ar
     3    1   33 1
     4    2    3 ar
     5    2   34 1
     6    3    4 ar
     7    3   25 1
     8    4    5 ar
     9    4   35 1
    10    5    6 ar
    11    5   36 1
    12    6    7 1
    13    7    8 1
    14    7   37 1
    15    7   38 1
    16    8   12 1
    17    8    9 2
    18    9   10 1
    19    9   18 1
    20   10   11 1
    21   10   39 1
    22   10   40 1
    23   11   16 ar
    24   11   12 ar
    25   12   13 ar
    26   13   14 ar
    27   13   41 1
    28   14   15 ar
    29   14   42 1
    30   15   16 ar
    31   15   17 1
    32   16   43 1
    33   17   44 1
    34   18   23 ar
    35   18   19 ar
    36   19   20 ar
    37   19   45 1
    38   20   21 ar
    39   20   46 1
    40   21   22 ar
    41   21   24 1
    42   22   23 ar
    43   22   47 1
    44   23   48 1
    45   24   49 1
    46   25   26 1
    47   26   27 1
    48   26   50 1
    49   26   51 1
    50   27   52 1
    51   27   53 1
    52   27   64 1
    53   28   29 1
    54   28   54 1
    55   28   55 1
    56   28   64 1
    57   29   30 1
    58   29   56 1
    59   29   57 1
    60   30   31 1
    61   30   58 1
    62   30   59 1
    63   31   32 1
    64   31   60 1
    65   31   61 1
    66   32   62 1
    67   32   63 1
    68   32   64 1
    69   64   65 1
@<TRIPOS>MOLECULE
ZINC03815455
   58    62     0     0     0
SMALL
USER_CHARGES

@<TRIPOS>ATOM
      1 C1          3.5331   -0.8248    4.8143 C.2       1 <0>        -0.1649
      2 C2          3.4906   -0.0675    3.6678 C.2       1 <0>        -0.1074
      3 C3          3.7427   -0.7212    2.4711 C.2       1 <0>        -0.1359
      4 S1          4.0459   -2.3906    3.0224 S.3       1 <0>         0.1534
      5 C4          3.8254   -2.1474    4.7245 C.2       1 <0>        -0.1926
      6 C5          3.7616   -0.1805    1.1096 C.2       1 <0>        -0.0031
      7 C6          3.9263   -0.8677   -0.0913 C.2       1 <0>        -0.1810
      8 C7          3.9067   -0.0893   -1.3326 C.ar      1 <0>        -0.0671
      9 C8          4.0510   -0.5576   -2.6581 C.ar      1 <0>        -0.0629
     10 C9          4.0083    0.3108   -3.7173 C.ar      1 <0>        -0.1346
     11 C10         3.8212    1.6761   -3.5226 C.ar      1 <0>         0.1368
     12 C11         3.6762    2.1647   -2.2339 C.ar      1 <0>        -0.0981
     13 C12         3.7193    1.2953   -1.1645 C.ar      1 <0>        -0.1052
     14 S2          3.5787    1.5142    0.5907 S.3       1 <0>         0.1209
     15 O1          3.7867    2.5226   -4.5857 O.3       1 <0>        -0.4909
     16 C13         4.1073   -2.2734   -0.1115 C.2       1 <0>         0.4553
     17 O2          3.1387   -3.0127   -0.0987 O.2       1 <0>        -0.4187
     18 C14         5.4702   -2.8422   -0.1480 C.ar      1 <0>        -0.1832
     19 C15         6.5826   -2.0015   -0.0585 C.ar      1 <0>        -0.0202
     20 C16         7.8515   -2.5362   -0.0866 C.ar      1 <0>        -0.2130
     21 C17         8.0264   -3.9090   -0.2158 C.ar      1 <0>         0.1473
     22 C18         6.9225   -4.7480   -0.3113 C.ar      1 <0>        -0.1518
     23 C19         5.6503   -4.2216   -0.2778 C.ar      1 <0>        -0.0176
     24 O3          9.2787   -4.4316   -0.2493 O.3       1 <0>        -0.3259
     25 C20        10.3645   -3.5288   -0.0298 C.3       1 <0>         0.0221
     26 C21        11.6777   -4.3125    0.0176 C.3       1 <0>         0.0029
     27 C22        12.8781   -6.0423   -1.1772 C.3       1 <0>        -0.0016
     28 C23        13.0027   -6.7499   -2.5284 C.3       1 <0>        -0.1482
     29 C24        13.4863   -5.7484   -3.5809 C.3       1 <0>        -0.1389
     30 C25        12.5046   -4.5751   -3.6466 C.3       1 <0>        -0.1474
     31 C26        12.3944   -3.9305   -2.2630 C.3       1 <0>        -0.0062
     32 H1          3.3410   -0.3717    5.7757 H         1 <0>         0.1437
     33 H2          3.2674    0.9887    3.6975 H         1 <0>         0.1448
     34 H3          3.9023   -2.8727    5.5211 H         1 <0>         0.1926
     35 H4          4.1971   -1.6123   -2.8384 H         1 <0>         0.1278
     36 H5          4.1214   -0.0712   -4.7211 H         1 <0>         0.1393
     37 H6          3.5307    3.2219   -2.0679 H         1 <0>         0.1438
     38 H7          2.9025    2.6564   -4.9535 H         1 <0>         0.4002
     39 H8          6.4476   -0.9343    0.0371 H         1 <0>         0.1360
     40 H9          8.7118   -1.8875   -0.0127 H         1 <0>         0.1344
     41 H10         7.0625   -5.8141   -0.4117 H         1 <0>         0.1418
     42 H11         4.7930   -4.8743   -0.3513 H         1 <0>         0.1486
     43 H12        10.4036   -2.8031   -0.8421 H         1 <0>         0.0884
     44 H13        10.2181   -3.0077    0.9163 H         1 <0>         0.1122
     45 H14        12.4961   -3.6356    0.2629 H         1 <0>         0.1513
     46 H15        11.6093   -5.0905    0.7780 H         1 <0>         0.1417
     47 H16        13.8530   -5.6582   -0.8771 H         1 <0>         0.1308
     48 H17        12.5203   -6.7492   -0.4287 H         1 <0>         0.1291
     49 H18        12.0309   -7.1463   -2.8227 H         1 <0>         0.0878
     50 H19        13.7196   -7.5670   -2.4472 H         1 <0>         0.1128
     51 H20        13.5350   -6.2375   -4.5538 H         1 <0>         0.0945
     52 H21        14.4755   -5.3809   -3.3080 H         1 <0>         0.0821
     53 H22        11.5250   -4.9373   -3.9584 H         1 <0>         0.0875
     54 H23        12.8660   -3.8380   -4.3637 H         1 <0>         0.1124
     55 H24        11.6854   -3.1036   -2.3030 H         1 <0>         0.1249
     56 H25        13.3717   -3.5564   -1.9578 H         1 <0>         0.1321
     57 N1         11.9013   -4.9396   -1.3014 N.4       1 <0>        -0.3965
     58 H26        11.0116   -5.3200   -1.6448 H         1 <0>         0.4336
@<TRIPOS>BOND
     1    1    5 2
     2    1    2 1
     3    1   32 1
     4    2    3 2
     5    2   33 1
     6    3    4 1
     7    3    6 1
     8    4    5 1
     9    5   34 1
    10    6   14 1
    11    6    7 2
    12    7    8 1
    13    7   16 1
    14    8   13 ar
    15    8    9 ar
    16    9   10 ar
    17    9   35 1
    18   10   11 ar
    19   10   36 1
    20   11   12 ar
    21   11   15 1
    22   12   13 ar
    23   12   37 1
    24   13   14 1
    25   15   38 1
    26   16   17 2
    27   16   18 1
    28   18   23 ar
    29   18   19 ar
    30   19   20 ar
    31   19   39 1
    32   20   21 ar
    33   20   40 1
    34   21   22 ar
    35   21   24 1
    36   22   23 ar
    37   22   41 1
    38   23   42 1
    39   24   25 1
    40   25   26 1
    41   25   43 1
    42   25   44 1
    43   26   45 1
    44   26   46 1
    45   26   57 1
    46   27   28 1
    47   27   47 1
    48   27   48 1
    49   27   57 1
    50   28   29 1
    51   28   49 1
    52   28   50 1
    53   29   30 1
    54   29   51 1
    55   29   52 1
    56   30   31 1
    57   30   53 1
    58   30   54 1
    59   31   55 1
    60   31   56 1
    61   31   57 1
    62   57   58 1
@<TRIPOS>MOLECULE
ZINC03815456
   62    66     0     0     0
SMALL
USER_CHARGES

@<TRIPOS>ATOM
      1 C1         -0.2466    4.9205   -4.6189 C.ar      1 <0>        -0.1008
      2 C2          0.0703    5.2230   -3.3106 C.ar      1 <0>        -0.1018
      3 C3         -0.7868    6.0248   -2.5529 C.ar      1 <0>        -0.0157
      4 C4         -1.9592    6.5210   -3.1268 C.ar      1 <0>        -0.1185
      5 C5         -2.2638    6.2151   -4.4419 C.ar      1 <0>         0.1130
      6 C6         -1.4053    5.4171   -5.1870 C.ar      1 <0>        -0.1287
      7 O1         -3.4040    6.6955   -5.0043 O.3       1 <0>        -0.4922
      8 C7         -0.4543    6.3466   -1.1516 C.2       1 <0>        -0.0549
      9 C8         -1.2708    6.2638   -0.0324 C.2       1 <0>        -0.1627
     10 C9         -0.7013    6.6430    1.2627 C.ar      1 <0>        -0.0763
     11 C10        -1.3301    6.6413    2.5284 C.ar      1 <0>        -0.0613
     12 C11        -0.6545    7.0256    3.6444 C.ar      1 <0>        -0.1356
     13 C12         0.6751    7.4330    3.5816 C.ar      1 <0>         0.1392
     14 C13         1.3238    7.4474    2.3572 C.ar      1 <0>        -0.1007
     15 C14         0.6432    7.0586    1.2222 C.ar      1 <0>        -0.1027
     16 S1          1.0942    6.9275   -0.4887 S.3       1 <0>         0.1032
     17 O2          1.3307    7.8126    4.7103 O.3       1 <0>        -0.4886
     18 C15        -2.6588    5.8117   -0.1428 C.2       1 <0>         0.4611
     19 O3         -3.5452    6.6162   -0.3673 O.2       1 <0>        -0.4265
     20 C16        -2.9842    4.3801    0.0179 C.ar      1 <0>        -0.1816
     21 C17        -1.9855    3.4706    0.3762 C.ar      1 <0>        -0.0190
     22 C18        -2.2940    2.1374    0.5297 C.ar      1 <0>        -0.2139
     23 C19        -3.5945    1.6942    0.3190 C.ar      1 <0>         0.1474
     24 C20        -4.5895    2.5947   -0.0431 C.ar      1 <0>        -0.1531
     25 C21        -4.2903    3.9305   -0.1935 C.ar      1 <0>        -0.0185
     26 O4         -3.8935    0.3786    0.4667 O.3       1 <0>        -0.3254
     27 C22        -2.8048   -0.5084    0.7314 C.3       1 <0>         0.0223
     28 C23        -3.3328   -1.9381    0.8659 C.3       1 <0>         0.0030
     29 C24        -4.8258   -3.5026   -0.2220 C.3       1 <0>        -0.0019
     30 C25        -5.5207   -3.8289   -1.5459 C.3       1 <0>        -0.1482
     31 C26        -4.4644   -4.1711   -2.6003 C.3       1 <0>        -0.1390
     32 C27        -3.4985   -2.9919   -2.7453 C.3       1 <0>        -0.1473
     33 C28        -2.8623   -2.6900   -1.3866 C.3       1 <0>        -0.0062
     34 H1          0.4144    4.2968   -5.2025 H         1 <0>         0.1363
     35 H2          0.9782    4.8368   -2.8713 H         1 <0>         0.1322
     36 H3         -2.6259    7.1418   -2.5466 H         1 <0>         0.1383
     37 H4         -1.6459    5.1798   -6.2127 H         1 <0>         0.1357
     38 H5         -4.1698    6.1147   -4.8984 H         1 <0>         0.3932
     39 H6         -2.3610    6.3302    2.6105 H         1 <0>         0.1271
     40 H7         -1.1600    7.0148    4.5987 H         1 <0>         0.1394
     41 H8          2.3553    7.7606    2.2921 H         1 <0>         0.1438
     42 H9          1.7820    7.0884    5.1653 H         1 <0>         0.3980
     43 H10        -0.9740    3.8136    0.5364 H         1 <0>         0.1375
     44 H11        -1.5236    1.4345    0.8106 H         1 <0>         0.1352
     45 H12        -5.5986    2.2465   -0.2063 H         1 <0>         0.1417
     46 H13        -5.0641    4.6297   -0.4742 H         1 <0>         0.1480
     47 H14        -2.0895   -0.4610   -0.0898 H         1 <0>         0.0886
     48 H15        -2.3134   -0.2138    1.6587 H         1 <0>         0.1120
     49 H16        -2.5132   -2.6043    1.1350 H         1 <0>         0.1517
     50 H17        -4.0978   -1.9714    1.6417 H         1 <0>         0.1420
     51 H18        -4.2597   -4.3711    0.1147 H         1 <0>         0.1311
     52 H19        -5.5744   -3.2446    0.5271 H         1 <0>         0.1292
     53 H20        -6.0982   -2.9655   -1.8763 H         1 <0>         0.0877
     54 H21        -6.1865   -4.6808   -1.4079 H         1 <0>         0.1131
     55 H22        -4.9524   -4.3619   -3.5562 H         1 <0>         0.0946
     56 H23        -3.9124   -5.0581   -2.2897 H         1 <0>         0.0823
     57 H24        -4.0442   -2.1153   -3.0945 H         1 <0>         0.0873
     58 H25        -2.7191   -3.2461   -3.4637 H         1 <0>         0.1125
     59 H26        -2.1847   -1.8417   -1.4834 H         1 <0>         0.1245
     60 H27        -2.3055   -3.5624   -1.0446 H         1 <0>         0.1324
     61 N1         -3.9293   -2.3445   -0.4233 N.4       1 <0>        -0.3965
     62 H28        -4.4765   -1.5612   -0.7991 H         1 <0>         0.4332
@<TRIPOS>BOND
     1    1    6 ar
     2    1    2 ar
     3    1   34 1
     4    2    3 ar
     5    2   35 1
     6    3    4 ar
     7    3    8 1
     8    4    5 ar
     9    4   36 1
    10    5    6 ar
    11    5    7 1
    12    6   37 1
    13    7   38 1
    14    8   16 1
    15    8    9 2
    16    9   10 1
    17    9   18 1
    18   10   15 ar
    19   10   11 ar
    20   11   12 ar
    21   11   39 1
    22   12   13 ar
    23   12   40 1
    24   13   14 ar
    25   13   17 1
    26   14   15 ar
    27   14   41 1
    28   15   16 1
    29   17   42 1
    30   18   19 2
    31   18   20 1
    32   20   25 ar
    33   20   21 ar
    34   21   22 ar
    35   21   43 1
    36   22   23 ar
    37   22   44 1
    38   23   24 ar
    39   23   26 1
    40   24   25 ar
    41   24   45 1
    42   25   46 1
    43   26   27 1
    44   27   28 1
    45   27   47 1
    46   27   48 1
    47   28   49 1
    48   28   50 1
    49   28   61 1
    50   29   30 1
    51   29   51 1
    52   29   52 1
    53   29   61 1
    54   30   31 1
    55   30   53 1
    56   30   54 1
    57   31   32 1
    58   31   55 1
    59   31   56 1
    60   32   33 1
    61   32   57 1
    62   32   58 1
    63   33   59 1
    64   33   60 1
    65   33   61 1
    66   61   62 1
@<TRIPOS>MOLECULE
ZINC03815457
   68    72     0     0     0
SMALL
USER_CHARGES

@<TRIPOS>ATOM
      1 C1          4.3375    1.6518    5.8581 C.3       1 <0>        -0.1139
      2 C2          3.5424    0.9956    4.7589 C.ar      1 <0>        -0.1023
      3 C3          3.3118    1.6701    3.5803 C.ar      1 <0>        -0.0837
      4 C4          2.5740    1.0604    2.5613 C.ar      1 <0>        -0.0385
      5 C5          2.0690   -0.2301    2.7459 C.ar      1 <0>        -0.0808
      6 C6          2.3091   -0.8990    3.9258 C.ar      1 <0>        -0.1030
      7 C7          3.0426   -0.2888    4.9361 C.ar      1 <0>         0.1233
      8 O1          3.2721   -0.9498    6.0998 O.3       1 <0>        -0.4909
      9 C8          1.7702   -2.2924    4.1239 C.3       1 <0>        -0.1163
     10 C9          2.3240    1.7784    1.2982 C.2       1 <0>        -0.0459
     11 C10         2.4893    1.3180   -0.0017 C.2       1 <0>        -0.1681
     12 C11         2.1698    2.2339   -1.0997 C.ar      1 <0>        -0.0722
     13 C12         2.2571    1.9945   -2.4898 C.ar      1 <0>        -0.0625
     14 C13         1.9213    2.9696   -3.3917 C.ar      1 <0>        -0.1366
     15 C14         1.4758    4.2192   -2.9699 C.ar      1 <0>         0.1365
     16 C15         1.3794    4.4833   -1.6132 C.ar      1 <0>        -0.0997
     17 C16         1.7208    3.5069   -0.7011 C.ar      1 <0>        -0.1035
     18 S1          1.7378    3.4457    1.0722 S.3       1 <0>         0.0972
     19 O2          1.1427    5.1723   -3.8801 O.3       1 <0>        -0.4887
     20 C17         2.9671   -0.0390   -0.2663 C.2       1 <0>         0.4628
     21 O3          2.1733   -0.9596   -0.3453 O.2       1 <0>        -0.4278
     22 C18         4.4120   -0.2930   -0.4375 C.ar      1 <0>        -0.1810
     23 C19         5.3326    0.7403   -0.2444 C.ar      1 <0>        -0.0187
     24 C20         6.6793    0.4982   -0.4003 C.ar      1 <0>        -0.2149
     25 C21         7.1225   -0.7694   -0.7592 C.ar      1 <0>         0.1465
     26 C22         6.2095   -1.7985   -0.9578 C.ar      1 <0>        -0.1521
     27 C23         4.8615   -1.5658   -0.7987 C.ar      1 <0>        -0.0181
     28 O4          8.4502   -1.0028   -0.9165 O.3       1 <0>        -0.3251
     29 C24         9.3401    0.0665   -0.5899 C.3       1 <0>         0.0224
     30 C25        10.7771   -0.3500   -0.9097 C.3       1 <0>         0.0030
     31 C26        12.0886   -1.3995   -2.6531 C.3       1 <0>        -0.0016
     32 C27        12.1161   -1.7310   -4.1468 C.3       1 <0>        -0.1483
     33 C28        12.1665   -0.4300   -4.9526 C.3       1 <0>        -0.1388
     34 C29        10.9560    0.4340   -4.5883 C.3       1 <0>        -0.1474
     35 C30        10.9622    0.7028   -3.0818 C.3       1 <0>        -0.0062
     36 H1          3.6637    2.2006    6.5160 H         1 <0>         0.0742
     37 H2          4.8634    0.8884    6.4315 H         1 <0>         0.0767
     38 H3          5.0606    2.3410    5.4217 H         1 <0>         0.0680
     39 H4          3.7000    2.6687    3.4437 H         1 <0>         0.1324
     40 H5          1.4947   -0.7033    1.9632 H         1 <0>         0.1350
     41 H6          2.5584   -0.8663    6.7469 H         1 <0>         0.3951
     42 H7          0.8158   -2.2417    4.6479 H         1 <0>         0.0748
     43 H8          1.6272   -2.7680    3.1536 H         1 <0>         0.0705
     44 H9          2.4779   -2.8753    4.7134 H         1 <0>         0.0768
     45 H10         2.5967    1.0329   -2.8454 H         1 <0>         0.1269
     46 H11         2.0003    2.7640   -4.4490 H         1 <0>         0.1388
     47 H12         1.0382    5.4494   -1.2715 H         1 <0>         0.1429
     48 H13         1.8796    5.7413   -4.1413 H         1 <0>         0.3971
     49 H14         4.9887    1.7265    0.0305 H         1 <0>         0.1366
     50 H15         7.3918    1.2953   -0.2472 H         1 <0>         0.1343
     51 H16         6.5578   -2.7819   -1.2369 H         1 <0>         0.1420
     52 H17         4.1528   -2.3661   -0.9525 H         1 <0>         0.1482
     53 H18         9.0787    0.9483   -1.1749 H         1 <0>         0.0878
     54 H19         9.2565    0.2972    0.4722 H         1 <0>         0.1124
     55 H20        11.4620    0.4385   -0.5979 H         1 <0>         0.1516
     56 H21        11.0158   -1.2703   -0.3767 H         1 <0>         0.1422
     57 H22        12.9933   -0.8536   -2.3855 H         1 <0>         0.1310
     58 H23        12.0382   -2.3233   -2.0768 H         1 <0>         0.1293
     59 H24        11.2181   -2.2890   -4.4123 H         1 <0>         0.0877
     60 H25        12.9974   -2.3321   -4.3706 H         1 <0>         0.1131
     61 H26        12.1425   -0.6601   -6.0178 H         1 <0>         0.0946
     62 H27        13.0836    0.1100   -4.7172 H         1 <0>         0.0822
     63 H28        10.0398   -0.0898   -4.8608 H         1 <0>         0.0873
     64 H29        11.0089    1.3801   -5.1270 H         1 <0>         0.1123
     65 H30        10.0937    1.3059   -2.8169 H         1 <0>         0.1242
     66 H31        11.8723    1.2388   -2.8123 H         1 <0>         0.1324
     67 N1         10.8875   -0.5873   -2.3639 N.4       1 <0>        -0.3967
     68 H32        10.0556   -1.0979   -2.6824 H         1 <0>         0.4332
@<TRIPOS>BOND
     1    1    2 1
     2    1   36 1
     3    1   37 1
     4    1   38 1
     5    2    7 ar
     6    2    3 ar
     7    3    4 ar
     8    3   39 1
     9    4    5 ar
    10    4   10 1
    11    5    6 ar
    12    5   40 1
    13    6    7 ar
    14    6    9 1
    15    7    8 1
    16    8   41 1
    17    9   42 1
    18    9   43 1
    19    9   44 1
    20   10   18 1
    21   10   11 2
    22   11   12 1
    23   11   20 1
    24   12   17 ar
    25   12   13 ar
    26   13   14 ar
    27   13   45 1
    28   14   15 ar
    29   14   46 1
    30   15   16 ar
    31   15   19 1
    32   16   17 ar
    33   16   47 1
    34   17   18 1
    35   19   48 1
    36   20   21 2
    37   20   22 1
    38   22   27 ar
    39   22   23 ar
    40   23   24 ar
    41   23   49 1
    42   24   25 ar
    43   24   50 1
    44   25   26 ar
    45   25   28 1
    46   26   27 ar
    47   26   51 1
    48   27   52 1
    49   28   29 1
    50   29   30 1
    51   29   53 1
    52   29   54 1
    53   30   55 1
    54   30   56 1
    55   30   67 1
    56   31   32 1
    57   31   57 1
    58   31   58 1
    59   31   67 1
    60   32   33 1
    61   32   59 1
    62   32   60 1
    63   33   34 1
    64   33   61 1
    65   33   62 1
    66   34   35 1
    67   34   63 1
    68   34   64 1
    69   35   65 1
    70   35   66 1
    71   35   67 1
    72   67   68 1
@<TRIPOS>MOLECULE
ZINC03815458
   66    70     0     0     0
SMALL
USER_CHARGES

@<TRIPOS>ATOM
      1 C1          0.3037   -9.1196    0.1627 C.3       1 <0>         0.0247
      2 O1         -0.3811   -8.2142    1.0308 O.3       1 <0>        -0.3148
      3 C2         -0.2808   -6.8913    0.7445 C.ar      1 <0>         0.1416
      4 C3         -0.9236   -5.9577    1.5502 C.ar      1 <0>        -0.1569
      5 C4         -0.8255   -4.6151    1.2649 C.ar      1 <0>        -0.0570
      6 C5         -0.0760   -4.1893    0.1598 C.ar      1 <0>        -0.1276
      7 C6          0.5652   -5.1352   -0.6516 C.ar      1 <0>        -0.0416
      8 C7          0.4647   -6.4748   -0.3531 C.ar      1 <0>        -0.2095
      9 C8          0.0319   -2.7602   -0.1497 C.2       1 <0>         0.0100
     10 C9          1.2435   -2.1403   -0.0679 C.2       1 <0>        -0.1573
     11 C10         1.3302   -0.6849   -0.3268 C.ar      1 <0>        -0.0330
     12 C11         2.5571   -0.0816   -0.5932 C.ar      1 <0>        -0.1065
     13 C12         2.6095    1.2724   -0.8577 C.ar      1 <0>        -0.1187
     14 C13         1.4490    2.0261   -0.8549 C.ar      1 <0>        -0.1124
     15 C14         0.2296    1.4324   -0.5807 C.ar      1 <0>        -0.1117
     16 C15         0.1649    0.0805   -0.3142 C.ar      1 <0>        -0.0731
     17 C16        -1.1541   -0.5712    0.0068 C.3       1 <0>        -0.0801
     18 C17        -1.1954   -1.9897   -0.5546 C.3       1 <0>        -0.0872
     19 C18         2.4487   -2.9072    0.2735 C.2       1 <0>         0.4507
     20 O2          2.8866   -3.7322   -0.5070 O.2       1 <0>        -0.4323
     21 C19         3.1289   -2.6774    1.5631 C.ar      1 <0>        -0.1798
     22 C20         2.5601   -1.8243    2.5134 C.ar      1 <0>        -0.0185
     23 C21         3.1958   -1.6161    3.7168 C.ar      1 <0>        -0.2161
     24 C22         4.4066   -2.2449    3.9835 C.ar      1 <0>         0.1441
     25 C23         4.9781   -3.0902    3.0394 C.ar      1 <0>        -0.1540
     26 C24         4.3467   -3.3077    1.8354 C.ar      1 <0>        -0.0210
     27 O3          5.0323   -2.0332    5.1691 O.3       1 <0>        -0.3233
     28 C25         4.3899   -1.1531    6.0936 C.3       1 <0>         0.0242
     29 C26         5.2374   -1.0392    7.3623 C.3       1 <0>         0.0088
     30 C27         6.3039    0.8875    6.3239 C.3       1 <0>        -0.0126
     31 C28         7.6407    1.6408    6.5391 C.3       1 <0>        -0.1463
     32 C29         8.0258    1.2551    7.9858 C.3       1 <0>        -0.1468
     33 C30         7.2636   -0.0525    8.2699 C.3       1 <0>        -0.0105
     34 H1         -0.0790   -9.0096   -0.8520 H         1 <0>         0.0590
     35 H2          1.3707   -8.8974    0.1746 H         1 <0>         0.0572
     36 H3          0.1416  -10.1422    0.5033 H         1 <0>         0.1041
     37 H4         -1.5012   -6.2870    2.4012 H         1 <0>         0.1344
     38 H5         -1.3249   -3.8909    1.8915 H         1 <0>         0.1312
     39 H6          1.1404   -4.8132   -1.5071 H         1 <0>         0.1351
     40 H7          0.9623   -7.2043   -0.9748 H         1 <0>         0.1323
     41 H8          3.4627   -0.6701   -0.5933 H         1 <0>         0.1173
     42 H9          3.5580    1.7442   -1.0676 H         1 <0>         0.1241
     43 H10         1.4953    3.0838   -1.0683 H         1 <0>         0.1254
     44 H11        -0.6722    2.0267   -0.5798 H         1 <0>         0.1278
     45 H12        -1.2849   -0.6073    1.0883 H         1 <0>         0.0805
     46 H13        -1.9618    0.0125   -0.4349 H         1 <0>         0.0875
     47 H14        -2.0807   -2.5000   -0.1751 H         1 <0>         0.0895
     48 H15        -1.2466   -1.9436   -1.6424 H         1 <0>         0.0915
     49 H16         1.6217   -1.3320    2.3052 H         1 <0>         0.1382
     50 H17         2.7549   -0.9604    4.4531 H         1 <0>         0.1333
     51 H18         5.9189   -3.5768    3.2505 H         1 <0>         0.1399
     52 H19         4.7913   -3.9645    1.1024 H         1 <0>         0.1460
     53 H20         4.2796   -0.1678    5.6407 H         1 <0>         0.0889
     54 H21         3.4064   -1.5482    6.3479 H         1 <0>         0.1109
     55 H22         4.7061   -0.4398    8.1016 H         1 <0>         0.1479
     56 H23         5.4221   -2.0345    7.7665 H         1 <0>         0.1431
     57 H24         6.1279    0.7116    5.2627 H         1 <0>         0.1355
     58 H25         5.4752    1.4407    6.7658 H         1 <0>         0.1339
     59 H26         7.4949    2.7175    6.4528 H         1 <0>         0.1163
     60 H27         8.3962    1.2949    5.8336 H         1 <0>         0.0986
     61 H28         7.7129    2.0341    8.6810 H         1 <0>         0.1037
     62 H29         9.1007    1.0902    8.0599 H         1 <0>         0.1053
     63 H30         6.5684    0.0950    9.0963 H         1 <0>         0.1316
     64 H31         7.9684   -0.8481    8.5115 H         1 <0>         0.1342
     65 N1          6.5369   -0.3758    7.0413 N.4       1 <0>        -0.3963
     66 H32         7.1019   -1.0058    6.4599 H         1 <0>         0.4366
@<TRIPOS>BOND
     1    1    2 1
     2    1   34 1
     3    1   35 1
     4    1   36 1
     5    2    3 1
     6    3    8 ar
     7    3    4 ar
     8    4    5 ar
     9    4   37 1
    10    5    6 ar
    11    5   38 1
    12    6    7 ar
    13    6    9 1
    14    7    8 ar
    15    7   39 1
    16    8   40 1
    17    9   18 1
    18    9   10 2
    19   10   11 1
    20   10   19 1
    21   11   16 ar
    22   11   12 ar
    23   12   13 ar
    24   12   41 1
    25   13   14 ar
    26   13   42 1
    27   14   15 ar
    28   14   43 1
    29   15   16 ar
    30   15   44 1
    31   16   17 1
    32   17   18 1
    33   17   45 1
    34   17   46 1
    35   18   47 1
    36   18   48 1
    37   19   20 2
    38   19   21 1
    39   21   26 ar
    40   21   22 ar
    41   22   23 ar
    42   22   49 1
    43   23   24 ar
    44   23   50 1
    45   24   25 ar
    46   24   27 1
    47   25   26 ar
    48   25   51 1
    49   26   52 1
    50   27   28 1
    51   28   29 1
    52   28   53 1
    53   28   54 1
    54   29   55 1
    55   29   56 1
    56   29   65 1
    57   30   31 1
    58   30   57 1
    59   30   58 1
    60   30   65 1
    61   31   32 1
    62   31   59 1
    63   31   60 1
    64   32   33 1
    65   32   61 1
    66   32   62 1
    67   33   63 1
    68   33   64 1
    69   33   65 1
    70   65   66 1
@<TRIPOS>MOLECULE
ZINC03815459
   66    70     0     0     0
SMALL
USER_CHARGES

@<TRIPOS>ATOM
      1 C1         -4.4578    7.8594    7.5198 C.3       1 <0>        -0.1174
      2 C2         -4.0153    6.4910    7.9697 C.2       1 <0>        -0.0364
      3 C3         -4.8351    5.4277    7.8598 C.2       1 <0>        -0.1266
      4 C4         -4.3595    4.0623    8.2816 C.3       1 <0>         0.1872
      5 H1         -5.2131    3.4739    8.6181 H         1 <0>         0.1324
      6 O1         -3.4105    4.1624    9.3424 O.3       1 <0>        -0.2949
      7 C5         -2.4106    5.0719    9.2069 C.ar      1 <0>         0.1214
      8 C6         -2.6733    6.2793    8.5417 C.ar      1 <0>        -0.1075
      9 C7         -1.6715    7.2376    8.4129 C.ar      1 <0>        -0.0978
     10 C8         -0.4126    6.9824    8.9327 C.ar      1 <0>         0.0825
     11 C9         -0.1538    5.7804    9.5774 C.ar      1 <0>        -0.1063
     12 C10        -1.1485    4.8283    9.7145 C.ar      1 <0>        -0.1302
     13 O2          0.5721    7.9123    8.8113 O.3       1 <0>        -0.4971
     14 C11        -3.7168    3.3754    7.1042 C.ar      1 <0>        -0.1296
     15 C12        -4.4663    2.5349    6.3020 C.ar      1 <0>        -0.0587
     16 C13        -3.8795    1.9040    5.2222 C.ar      1 <0>        -0.1388
     17 C14        -2.5370    2.1143    4.9430 C.ar      1 <0>         0.1169
     18 C15        -1.7857    2.9536    5.7528 C.ar      1 <0>        -0.1979
     19 C16        -2.3787    3.5869    6.8278 C.ar      1 <0>        -0.0694
     20 O3         -1.9574    1.4949    3.8812 O.3       1 <0>        -0.3279
     21 C17        -0.5713    1.7580    3.6540 C.3       1 <0>         0.0227
     22 C18        -0.0991    0.9786    2.4249 C.3       1 <0>         0.0046
     23 C19        -0.3503    0.7714    0.0261 C.3       1 <0>        -0.0020
     24 C20        -1.2346    1.1613   -1.1605 C.3       1 <0>        -0.1476
     25 C21        -1.1988    2.6816   -1.3396 C.3       1 <0>        -0.1387
     26 C22        -1.6650    3.3514   -0.0440 C.3       1 <0>        -0.1455
     27 C23        -0.7682    2.8980    1.1102 C.3       1 <0>        -0.0100
     28 C24        -6.1978    5.6006    7.3267 C.ar      1 <0>        -0.0525
     29 C25        -7.3061    5.3602    8.1439 C.ar      1 <0>        -0.0886
     30 C26        -8.5785    5.5298    7.6427 C.ar      1 <0>        -0.1401
     31 C27        -8.7608    5.9264    6.3242 C.ar      1 <0>         0.1131
     32 C28        -7.6628    6.1605    5.5065 C.ar      1 <0>        -0.1442
     33 C29        -6.3864    6.0001    6.0005 C.ar      1 <0>        -0.0854
     34 O4        -10.0174    6.0863    5.8328 O.3       1 <0>        -0.4982
     35 H2         -3.6548    8.5760    7.6923 H         1 <0>         0.0701
     36 H3         -4.6984    7.8323    6.4570 H         1 <0>         0.0765
     37 H4         -5.3404    8.1598    8.0845 H         1 <0>         0.0788
     38 H5         -1.8741    8.1727    7.9121 H         1 <0>         0.1395
     39 H6          0.8315    5.5870    9.9751 H         1 <0>         0.1401
     40 H7         -0.9390    3.8962   10.2181 H         1 <0>         0.1418
     41 H8          0.6123    8.5407    9.5452 H         1 <0>         0.3950
     42 H9         -5.5116    2.3718    6.5195 H         1 <0>         0.1371
     43 H10        -4.4655    1.2480    4.5956 H         1 <0>         0.1352
     44 H11        -0.7392    3.1154    5.5402 H         1 <0>         0.1280
     45 H12        -1.7953    4.2439    7.4559 H         1 <0>         0.1357
     46 H13         0.0052    1.4468    4.5251 H         1 <0>         0.1085
     47 H14        -0.4270    2.8251    3.4851 H         1 <0>         0.0880
     48 H15        -0.2810   -0.0852    2.5774 H         1 <0>         0.1403
     49 H16         0.9673    1.1472    2.2755 H         1 <0>         0.1499
     50 H17        -0.3850   -0.3091    0.1652 H         1 <0>         0.1291
     51 H18         0.6767    1.0797   -0.1696 H         1 <0>         0.1304
     52 H19        -0.8633    0.6795   -2.0649 H         1 <0>         0.1127
     53 H20        -2.2593    0.8412   -0.9714 H         1 <0>         0.0876
     54 H21        -0.1808    2.9977   -1.5672 H         1 <0>         0.0817
     55 H22        -1.8613    2.9679   -2.1564 H         1 <0>         0.0943
     56 H23        -1.6011    4.4343   -0.1507 H         1 <0>         0.1113
     57 H24        -2.6964    3.0657    0.1627 H         1 <0>         0.0876
     58 H25         0.2608    3.1961    0.9094 H         1 <0>         0.1310
     59 H26        -1.1065    3.3618    2.0368 H         1 <0>         0.1265
     60 H27        -7.1653    5.0468    9.1678 H         1 <0>         0.1304
     61 H28        -9.4354    5.3493    8.2748 H         1 <0>         0.1337
     62 H29        -7.8095    6.4691    4.4820 H         1 <0>         0.1303
     63 H30        -5.5331    6.1830    5.3642 H         1 <0>         0.1240
     64 H31       -10.3896    5.2864    5.4368 H         1 <0>         0.3937
     65 N1         -0.8664    1.4290    1.2454 N.4       1 <0>        -0.3937
     66 H32        -1.8524    1.1713    1.3707 H         1 <0>         0.4336
@<TRIPOS>BOND
     1    1    2 1
     2    1   35 1
     3    1   36 1
     4    1   37 1
     5    2    8 1
     6    2    3 2
     7    3    4 1
     8    3   28 1
     9    4    5 1
    10    4    6 1
    11    4   14 1
    12    6    7 1
    13    7   12 ar
    14    7    8 ar
    15    8    9 ar
    16    9   10 ar
    17    9   38 1
    18   10   11 ar
    19   10   13 1
    20   11   12 ar
    21   11   39 1
    22   12   40 1
    23   13   41 1
    24   14   19 ar
    25   14   15 ar
    26   15   16 ar
    27   15   42 1
    28   16   17 ar
    29   16   43 1
    30   17   18 ar
    31   17   20 1
    32   18   19 ar
    33   18   44 1
    34   19   45 1
    35   20   21 1
    36   21   22 1
    37   21   46 1
    38   21   47 1
    39   22   48 1
    40   22   49 1
    41   22   65 1
    42   23   24 1
    43   23   50 1
    44   23   51 1
    45   23   65 1
    46   24   25 1
    47   24   52 1
    48   24   53 1
    49   25   26 1
    50   25   54 1
    51   25   55 1
    52   26   27 1
    53   26   56 1
    54   26   57 1
    55   27   58 1
    56   27   59 1
    57   27   65 1
    58   28   33 ar
    59   28   29 ar
    60   29   30 ar
    61   29   60 1
    62   30   31 ar
    63   30   61 1
    64   31   32 ar
    65   31   34 1
    66   32   33 ar
    67   32   62 1
    68   33   63 1
    69   34   64 1
    70   65   66 1
@<TRIPOS>MOLECULE
ZINC03815460
   65    70     0     0     0
SMALL
USER_CHARGES

@<TRIPOS>ATOM
      1 C1         -1.2227   -2.0656   -0.3073 C.ar      1 <0>        -0.0605
      2 C2         -1.2288   -0.6846   -0.2743 C.ar      1 <0>        -0.1379
      3 C3         -0.0336    0.0106   -0.1604 C.ar      1 <0>         0.1192
      4 C4          1.1654   -0.6832   -0.0856 C.ar      1 <0>        -0.1967
      5 C5          1.1657   -2.0644   -0.1137 C.ar      1 <0>        -0.0655
      6 C6         -0.0268   -2.7550   -0.2269 C.ar      1 <0>        -0.1329
      7 C7         -0.0231   -4.2615   -0.2631 C.3       1 <0>         0.1862
      8 H1         -1.0169   -4.6297   -0.0083 H         1 <0>         0.1353
      9 C8          0.3374   -4.7240   -1.6496 C.ar      1 <0>        -0.1044
     10 C9         -0.6521   -4.9645   -2.6116 C.ar      1 <0>        -0.0355
     11 C10        -2.0171   -4.8116   -2.3083 C.ar      1 <0>        -0.1010
     12 C11        -2.9526   -5.0537   -3.2648 C.ar      1 <0>        -0.1251
     13 C12        -2.5772   -5.4538   -4.5512 C.ar      1 <0>         0.1141
     14 C13        -1.2610   -5.6122   -4.8800 C.ar      1 <0>        -0.1295
     15 C14        -0.2688   -5.3712   -3.9159 C.ar      1 <0>        -0.0350
     16 C15         1.0949   -5.5257   -4.2262 C.ar      1 <0>        -0.0892
     17 C16         2.0391   -5.3005   -3.2747 C.ar      1 <0>        -0.1009
     18 C17         1.6696   -4.9140   -1.9798 C.ar      1 <0>        -0.0218
     19 C18         2.6821   -4.7254   -0.9136 C.ar      1 <0>        -0.1013
     20 C19         4.0362   -4.6390   -1.2086 C.ar      1 <0>        -0.0987
     21 C20         4.9490   -4.4459   -0.1836 C.ar      1 <0>         0.0847
     22 C21         4.5094   -4.3390    1.1288 C.ar      1 <0>        -0.1072
     23 C22         3.1626   -4.4311    1.4263 C.ar      1 <0>        -0.1276
     24 C23         2.2420   -4.6322    0.4123 C.ar      1 <0>         0.1220
     25 O1          0.9183   -4.7527    0.6894 O.3       1 <0>        -0.2948
     26 O2          6.2770   -4.3618   -0.4638 O.3       1 <0>        -0.4962
     27 O3         -3.5347   -5.6884   -5.4864 O.3       1 <0>        -0.4984
     28 O4         -0.0370    1.3692   -0.1277 O.3       1 <0>        -0.3279
     29 C24         1.2305    2.0185   -0.0090 C.3       1 <0>         0.0240
     30 C25         1.0269    3.5347    0.0112 C.3       1 <0>         0.0034
     31 C26        -0.3393    5.2338    1.0633 C.3       1 <0>        -0.0017
     32 C27        -1.2223    5.5307    2.2776 C.3       1 <0>        -0.1480
     33 C28        -0.3655    5.4962    3.5461 C.3       1 <0>        -0.1386
     34 C29         0.3090    4.1263    3.6600 C.3       1 <0>        -0.1472
     35 C30         1.1476    3.8702    2.4057 C.3       1 <0>        -0.0064
     36 H2         -2.1528   -2.6073   -0.3956 H         1 <0>         0.1376
     37 H3         -2.1631   -0.1466   -0.3376 H         1 <0>         0.1370
     38 H4          2.0974   -0.1442   -0.0014 H         1 <0>         0.1290
     39 H5          2.0985   -2.6051   -0.0517 H         1 <0>         0.1350
     40 H6         -2.3211   -4.5033   -1.3189 H         1 <0>         0.1302
     41 H7         -3.9997   -4.9358   -3.0279 H         1 <0>         0.1349
     42 H8         -0.9846   -5.9212   -5.8772 H         1 <0>         0.1385
     43 H9          1.3916   -5.8239   -5.2209 H         1 <0>         0.1370
     44 H10         3.0842   -5.4209   -3.5192 H         1 <0>         0.1328
     45 H11         4.3761   -4.7219   -2.2304 H         1 <0>         0.1387
     46 H12         5.2245   -4.1824    1.9229 H         1 <0>         0.1404
     47 H13         2.8286   -4.3464    2.4499 H         1 <0>         0.1415
     48 H14         6.7369   -5.2124   -0.4482 H         1 <0>         0.3951
     49 H15        -3.8507   -6.6022   -5.5051 H         1 <0>         0.3962
     50 H16         1.7144    1.7044    0.9158 H         1 <0>         0.0860
     51 H17         1.8584    1.7475   -0.8578 H         1 <0>         0.1093
     52 H18         1.9971    4.0316    0.0118 H         1 <0>         0.1506
     53 H19         0.4641    3.8376   -0.8717 H         1 <0>         0.1414
     54 H20         0.4379    5.9940    0.9849 H         1 <0>         0.1307
     55 H21        -0.9491    5.2435    0.1599 H         1 <0>         0.1289
     56 H22        -2.0081    4.7787    2.3486 H         1 <0>         0.0875
     57 H23        -1.6718    6.5176    2.1688 H         1 <0>         0.1127
     58 H24        -0.9982    5.6643    4.4177 H         1 <0>         0.0945
     59 H25         0.3963    6.2740    3.4924 H         1 <0>         0.0820
     60 H26        -0.4527    3.3522    3.7528 H         1 <0>         0.0874
     61 H27         0.9541    4.1102    4.5385 H         1 <0>         0.1123
     62 H28         1.6178    2.8895    2.4772 H         1 <0>         0.1247
     63 H29         1.9177    4.6369    2.3211 H         1 <0>         0.1321
     64 N1          0.2609    3.8921    1.2230 N.4       1 <0>        -0.3962
     65 H30        -0.4903    3.2051    1.3573 H         1 <0>         0.4334
@<TRIPOS>BOND
     1    1    6 ar
     2    1    2 ar
     3    1   36 1
     4    2    3 ar
     5    2   37 1
     6    3    4 ar
     7    3   28 1
     8    4    5 ar
     9    4   38 1
    10    5    6 ar
    11    5   39 1
    12    6    7 1
    13    7    8 1
    14    7   25 1
    15    7    9 1
    16    9   18 ar
    17    9   10 ar
    18   10   15 ar
    19   10   11 ar
    20   11   12 ar
    21   11   40 1
    22   12   13 ar
    23   12   41 1
    24   13   14 ar
    25   13   27 1
    26   14   15 ar
    27   14   42 1
    28   15   16 ar
    29   16   17 ar
    30   16   43 1
    31   17   18 ar
    32   17   44 1
    33   18   19 1
    34   19   24 ar
    35   19   20 ar
    36   20   21 ar
    37   20   45 1
    38   21   22 ar
    39   21   26 1
    40   22   23 ar
    41   22   46 1
    42   23   24 ar
    43   23   47 1
    44   24   25 1
    45   26   48 1
    46   27   49 1
    47   28   29 1
    48   29   30 1
    49   29   50 1
    50   29   51 1
    51   30   52 1
    52   30   53 1
    53   30   64 1
    54   31   32 1
    55   31   54 1
    56   31   55 1
    57   31   64 1
    58   32   33 1
    59   32   56 1
    60   32   57 1
    61   33   34 1
    62   33   58 1
    63   33   59 1
    64   34   35 1
    65   34   60 1
    66   34   61 1
    67   35   62 1
    68   35   63 1
    69   35   64 1
    70   64   65 1
@<TRIPOS>MOLECULE
ZINC03815461
   62    67     0     0     0
SMALL
USER_CHARGES

@<TRIPOS>ATOM
      1 C1          2.7593   -3.7649    0.3803 C.ar      1 <0>        -0.0633
      2 C2          4.1158   -3.7453    0.1196 C.ar      1 <0>        -0.1972
      3 C3          4.8926   -4.8579    0.4083 C.ar      1 <0>         0.1194
      4 C4          4.3057   -5.9855    0.9640 C.ar      1 <0>        -0.1374
      5 C5          2.9498   -5.9978    1.2285 C.ar      1 <0>        -0.0590
      6 C6          2.1778   -4.8878    0.9393 C.ar      1 <0>        -0.1319
      7 C7          0.6989   -4.9042    1.2284 C.3       1 <0>         0.2118
      8 H1          0.3573   -5.9356    1.3161 H         1 <0>         0.1364
      9 C8          0.4284   -4.1667    2.5350 C.2       1 <0>        -0.1421
     10 C9          0.4633   -4.7501    3.8581 C.ar      1 <0>        -0.0790
     11 C10         0.7317   -6.1076    4.1768 C.ar      1 <0>        -0.0584
     12 C11         0.7219   -6.4629    5.4957 C.ar      1 <0>        -0.1426
     13 C12         0.4626   -5.5669    6.5264 C.ar      1 <0>         0.1343
     14 C13         0.1928   -4.2259    6.2592 C.ar      1 <0>        -0.0946
     15 C14         0.2001   -3.8564    4.9326 C.ar      1 <0>        -0.1118
     16 S1         -0.0845   -2.3051    4.1364 S.3       1 <0>         0.1179
     17 C15         0.1309   -2.8257    2.4649 C.2       1 <0>        -0.1009
     18 C16         0.0406   -2.1061    1.1959 C.ar      1 <0>        -0.0679
     19 C17        -0.0087   -0.7259    1.0913 C.ar      1 <0>        -0.0915
     20 C18        -0.0684   -0.1353   -0.1619 C.ar      1 <0>         0.0872
     21 C19        -0.0838   -0.9272   -1.3022 C.ar      1 <0>        -0.1005
     22 C20        -0.0417   -2.3055   -1.2031 C.ar      1 <0>        -0.1270
     23 C21         0.0058   -2.9120    0.0381 C.ar      1 <0>         0.1350
     24 O1         -0.0001   -4.2612    0.1647 O.3       1 <0>        -0.2995
     25 O2         -0.1176    1.2191   -0.2737 O.3       1 <0>        -0.4898
     26 O3          0.4726   -6.0049    7.8133 O.3       1 <0>        -0.4942
     27 O4          6.2261   -4.8435    0.1469 O.3       1 <0>        -0.3277
     28 C22         6.7621   -3.6488   -0.4254 C.3       1 <0>         0.0243
     29 C23         8.2663   -3.8197   -0.6468 C.3       1 <0>         0.0032
     30 C24         9.8656   -5.3939   -1.5550 C.3       1 <0>        -0.0017
     31 C25        10.0254   -6.5783   -2.5109 C.3       1 <0>        -0.1481
     32 C26         9.7338   -6.1164   -3.9413 C.3       1 <0>        -0.1387
     33 C27         8.3211   -5.5290   -4.0016 C.3       1 <0>        -0.1472
     34 C28         8.2107   -4.3750   -3.0025 C.3       1 <0>        -0.0063
     35 H2          2.1533   -2.9009    0.1509 H         1 <0>         0.1310
     36 H3          4.5703   -2.8665   -0.3134 H         1 <0>         0.1289
     37 H4          4.9083   -6.8528    1.1901 H         1 <0>         0.1373
     38 H5          2.4925   -6.8754    1.6611 H         1 <0>         0.1382
     39 H6          0.9371   -6.8333    3.4038 H         1 <0>         0.1365
     40 H7          0.9249   -7.4926    5.7506 H         1 <0>         0.1340
     41 H8         -0.0101   -3.5166    7.0480 H         1 <0>         0.1504
     42 H9         -0.0003   -0.1132    1.9806 H         1 <0>         0.1381
     43 H10        -0.1251   -0.4620   -2.2760 H         1 <0>         0.1432
     44 H11        -0.0501   -2.9102   -2.0979 H         1 <0>         0.1437
     45 H12         0.7507    1.6405   -0.3341 H         1 <0>         0.3916
     46 H13        -0.3866   -6.3162    8.1295 H         1 <0>         0.3987
     47 H14         6.2743   -3.4528   -1.3803 H         1 <0>         0.0858
     48 H15         6.5871   -2.8119    0.2506 H         1 <0>         0.1090
     49 H16         8.6908   -2.8797   -0.9995 H         1 <0>         0.1506
     50 H17         8.7418   -4.1035    0.2920 H         1 <0>         0.1414
     51 H18        10.5749   -4.6114   -1.8246 H         1 <0>         0.1308
     52 H19        10.0586   -5.7227   -0.5339 H         1 <0>         0.1290
     53 H20         9.3259   -7.3669   -2.2334 H         1 <0>         0.0876
     54 H21        11.0451   -6.9591   -2.4522 H         1 <0>         0.1129
     55 H22         9.8041   -6.9664   -4.6200 H         1 <0>         0.0946
     56 H23        10.4575   -5.3554   -4.2330 H         1 <0>         0.0821
     57 H24         7.5948   -6.3010   -3.7475 H         1 <0>         0.0874
     58 H25         8.1232   -5.1594   -5.0077 H         1 <0>         0.1124
     59 H26         7.2017   -3.9638   -3.0327 H         1 <0>         0.1245
     60 H27         8.9278   -3.5974   -3.2654 H         1 <0>         0.1321
     61 N1          8.4783   -4.8901   -1.6430 N.4       1 <0>        -0.3962
     62 H28         7.8306   -5.6620   -1.4458 H         1 <0>         0.4334
@<TRIPOS>BOND
     1    1    6 ar
     2    1    2 ar
     3    1   35 1
     4    2    3 ar
     5    2   36 1
     6    3    4 ar
     7    3   27 1
     8    4    5 ar
     9    4   37 1
    10    5    6 ar
    11    5   38 1
    12    6    7 1
    13    7    8 1
    14    7   24 1
    15    7    9 1
    16    9   17 2
    17    9   10 1
    18   10   15 ar
    19   10   11 ar
    20   11   12 ar
    21   11   39 1
    22   12   13 ar
    23   12   40 1
    24   13   14 ar
    25   13   26 1
    26   14   15 ar
    27   14   41 1
    28   15   16 1
    29   16   17 1
    30   17   18 1
    31   18   23 ar
    32   18   19 ar
    33   19   20 ar
    34   19   42 1
    35   20   21 ar
    36   20   25 1
    37   21   22 ar
    38   21   43 1
    39   22   23 ar
    40   22   44 1
    41   23   24 1
    42   25   45 1
    43   26   46 1
    44   27   28 1
    45   28   29 1
    46   28   47 1
    47   28   48 1
    48   29   49 1
    49   29   50 1
    50   29   61 1
    51   30   31 1
    52   30   51 1
    53   30   52 1
    54   30   61 1
    55   31   32 1
    56   31   53 1
    57   31   54 1
    58   32   33 1
    59   32   55 1
    60   32   56 1
    61   33   34 1
    62   33   57 1
    63   33   58 1
    64   34   59 1
    65   34   60 1
    66   34   61 1
    67   61   62 1
@<TRIPOS>MOLECULE
ZINC03815462
   65    69     0     0     0
SMALL
USER_CHARGES

@<TRIPOS>ATOM
      1 C1         -4.7454   -3.7807   -4.2578 C.ar      1 <0>        -0.1152
      2 C2         -4.5982   -4.5240   -3.0998 C.ar      1 <0>        -0.1172
      3 C3         -4.0219   -3.9583   -1.9818 C.ar      1 <0>        -0.1068
      4 C4         -3.5865   -2.6309   -2.0203 C.ar      1 <0>        -0.0444
      5 C5         -3.7390   -1.8864   -3.1931 C.ar      1 <0>        -0.1073
      6 C6         -4.3171   -2.4656   -4.3032 C.ar      1 <0>        -0.1154
      7 C7         -2.9702   -2.0191   -0.8298 C.2       1 <0>        -0.1254
      8 C8         -1.6630   -1.6855   -0.8406 C.2       1 <0>        -0.0403
      9 C9         -1.0941   -1.0830    0.3786 C.ar      1 <0>        -0.1301
     10 C10         0.1215   -0.4031    0.3551 C.ar      1 <0>        -0.0599
     11 C11         0.6199    0.1420    1.5203 C.ar      1 <0>        -0.1718
     12 C12        -0.0855    0.0141    2.7111 C.ar      1 <0>         0.1478
     13 C13        -1.2979   -0.6621    2.7421 C.ar      1 <0>        -0.1693
     14 C14        -1.8070   -1.2121    1.5821 C.ar      1 <0>         0.1491
     15 O1         -2.9890   -1.8791    1.5777 O.3       1 <0>        -0.3067
     16 C15        -3.7963   -1.7700    0.4049 C.3       1 <0>         0.1103
     17 O2          0.4146    0.5547    3.8527 O.3       1 <0>        -0.4954
     18 C16        -0.8123   -1.9167   -2.0628 C.3       1 <0>        -0.0449
     19 C17        -0.0954   -3.2359   -1.9337 C.ar      1 <0>        -0.0910
     20 C18         1.1012   -3.3066   -1.2445 C.ar      1 <0>        -0.0704
     21 C19         1.7574   -4.5159   -1.1198 C.ar      1 <0>        -0.1987
     22 C20         1.2206   -5.6577   -1.6966 C.ar      1 <0>         0.1098
     23 C21         0.0228   -5.5830   -2.3925 C.ar      1 <0>        -0.1385
     24 C22        -0.6325   -4.3725   -2.5094 C.ar      1 <0>        -0.0672
     25 O3          1.8669   -6.8475   -1.5798 O.3       1 <0>        -0.3301
     26 C23         3.0951   -6.8496   -0.8495 C.3       1 <0>         0.0252
     27 C24         3.6716   -8.2667   -0.8253 C.3       1 <0>         0.0032
     28 C25         4.1019  -10.1449   -2.2907 C.3       1 <0>        -0.0018
     29 C26         4.3062  -10.5483   -3.7528 C.3       1 <0>        -0.1480
     30 C27         5.5871   -9.8977   -4.2825 C.3       1 <0>        -0.1386
     31 C28         5.4811   -8.3783   -4.1256 C.3       1 <0>        -0.1472
     32 C29         5.2427   -8.0378   -2.6528 C.3       1 <0>        -0.0059
     33 H1         -5.1969   -4.2293   -5.1304 H         1 <0>         0.1243
     34 H2         -4.9349   -5.5498   -3.0717 H         1 <0>         0.1247
     35 H3         -3.9033   -4.5411   -1.0803 H         1 <0>         0.1223
     36 H4         -3.4045   -0.8602   -3.2302 H         1 <0>         0.1250
     37 H5         -4.4356   -1.8916   -5.2103 H         1 <0>         0.1264
     38 H6          0.6702   -0.3030   -0.5697 H         1 <0>         0.1330
     39 H7          1.5621    0.6697    1.5072 H         1 <0>         0.1349
     40 H8         -1.8410   -0.7579    3.6707 H         1 <0>         0.1418
     41 H9         -4.2248   -0.7690    0.3550 H         1 <0>         0.0761
     42 H10        -4.6010   -2.5037    0.4533 H         1 <0>         0.1185
     43 H11         0.1338    1.4662    4.0121 H         1 <0>         0.3987
     44 H12        -1.4464   -1.9330   -2.9492 H         1 <0>         0.0947
     45 H13        -0.0812   -1.1133   -2.1539 H         1 <0>         0.0872
     46 H14         1.5209   -2.4166   -0.7994 H         1 <0>         0.1289
     47 H15         2.6898   -4.5714   -0.5776 H         1 <0>         0.1266
     48 H16        -0.3970   -6.4705   -2.8427 H         1 <0>         0.1317
     49 H17        -1.5652   -4.3139   -3.0508 H         1 <0>         0.1341
     50 H18         3.8050   -6.1768   -1.3305 H         1 <0>         0.0849
     51 H19         2.9115   -6.5146    0.1714 H         1 <0>         0.1085
     52 H20         4.5717   -8.2823   -0.2107 H         1 <0>         0.1500
     53 H21         2.9342   -8.9518   -0.4071 H         1 <0>         0.1408
     54 H22         4.9465  -10.4935   -1.6964 H         1 <0>         0.1305
     55 H23         3.1831  -10.5949   -1.9148 H         1 <0>         0.1288
     56 H24         3.4554  -10.2120   -4.3454 H         1 <0>         0.0875
     57 H25         4.3928  -11.6326   -3.8231 H         1 <0>         0.1126
     58 H26         5.7136  -10.1472   -5.3360 H         1 <0>         0.0943
     59 H27         6.4436  -10.2635   -3.7161 H         1 <0>         0.0820
     60 H28         4.6487   -8.0079   -4.7240 H         1 <0>         0.0872
     61 H29         6.4073   -7.9122   -4.4616 H         1 <0>         0.1121
     62 H30         5.1525   -6.9575   -2.5397 H         1 <0>         0.1247
     63 H31         6.0820   -8.3965   -2.0569 H         1 <0>         0.1318
     64 N1          3.9831   -8.6736   -2.2111 N.4       1 <0>        -0.3959
     65 H32         3.2214   -8.3672   -2.8277 H         1 <0>         0.4336
@<TRIPOS>BOND
     1    1    6 ar
     2    1    2 ar
     3    1   33 1
     4    2    3 ar
     5    2   34 1
     6    3    4 ar
     7    3   35 1
     8    4    5 ar
     9    4    7 1
    10    5    6 ar
    11    5   36 1
    12    6   37 1
    13    7   16 1
    14    7    8 2
    15    8    9 1
    16    8   18 1
    17    9   14 ar
    18    9   10 ar
    19   10   11 ar
    20   10   38 1
    21   11   12 ar
    22   11   39 1
    23   12   13 ar
    24   12   17 1
    25   13   14 ar
    26   13   40 1
    27   14   15 1
    28   15   16 1
    29   16   41 1
    30   16   42 1
    31   17   43 1
    32   18   19 1
    33   18   44 1
    34   18   45 1
    35   19   24 ar
    36   19   20 ar
    37   20   21 ar
    38   20   46 1
    39   21   22 ar
    40   21   47 1
    41   22   23 ar
    42   22   25 1
    43   23   24 ar
    44   23   48 1
    45   24   49 1
    46   25   26 1
    47   26   27 1
    48   26   50 1
    49   26   51 1
    50   27   52 1
    51   27   53 1
    52   27   64 1
    53   28   29 1
    54   28   54 1
    55   28   55 1
    56   28   64 1
    57   29   30 1
    58   29   56 1
    59   29   57 1
    60   30   31 1
    61   30   58 1
    62   30   59 1
    63   31   32 1
    64   31   60 1
    65   31   61 1
    66   32   62 1
    67   32   63 1
    68   32   64 1
    69   64   65 1
@<TRIPOS>MOLECULE
ZINC03815463
   64    68     0     0     0
SMALL
USER_CHARGES

@<TRIPOS>ATOM
      1 C1         -1.4976   -1.2778   -2.5865 C.3       1 <0>        -0.1795
      2 C2         -2.4081   -0.8090   -3.6921 C.ar      1 <0>        -0.0466
      3 C3         -2.7831   -1.6799   -4.6933 C.ar      1 <0>        -0.1383
      4 C4         -3.6219   -1.2488   -5.7122 C.ar      1 <0>         0.1641
      5 C5         -4.0857    0.0602   -5.7266 C.ar      1 <0>        -0.1413
      6 C6         -3.7181    0.9342   -4.7258 C.ar      1 <0>        -0.0463
      7 C7         -2.8716    0.5056   -3.7040 C.ar      1 <0>        -0.1212
      8 C8         -2.4702    1.4447   -2.6289 C.ar      1 <0>         0.2435
      9 C9         -2.8219    2.7865   -2.7216 C.ar      1 <0>        -0.1604
     10 C10        -2.4375    3.6613   -1.7027 C.ar      1 <0>         0.1303
     11 C11        -1.7113    3.1481   -0.6267 C.ar      1 <0>        -0.1724
     12 C12        -1.3976    1.7948   -0.6054 C.ar      1 <0>         0.3681
     13 N1         -0.6747    1.2747    0.4622 N.pl3     1 <0>        -0.4706
     14 C13         0.5939    1.9929    0.6385 C.3       1 <0>         0.0519
     15 C14         1.2930    1.4931    1.9048 C.3       1 <0>        -0.1208
     16 C15         1.5497   -0.0113    1.7801 C.3       1 <0>        -0.0875
     17 C16         0.2181   -0.7309    1.5489 C.3       1 <0>        -0.1128
     18 C17        -0.4498   -0.1666    0.2930 C.3       1 <0>         0.0152
     19 C18         2.1943   -0.5297    3.0672 C.3       1 <0>        -0.0747
     20 C19         3.5592    0.0882    3.2297 C.ar      1 <0>        -0.0887
     21 C20         4.6703   -0.5411    2.7001 C.ar      1 <0>        -0.1180
     22 C21         5.9217    0.0280    2.8453 C.ar      1 <0>        -0.1158
     23 C22         6.0633    1.2214    3.5283 C.ar      1 <0>        -0.1196
     24 C23         4.9528    1.8482    4.0621 C.ar      1 <0>        -0.1168
     25 C24         3.7009    1.2814    3.9131 C.ar      1 <0>        -0.1187
     26 C25        -2.7920    5.1011   -1.7630 C.ar      1 <0>        -0.1048
     27 C26        -2.4056    5.9599   -0.7360 C.ar      1 <0>        -0.0765
     28 C27        -2.7326    7.2993   -0.8002 C.ar      1 <0>        -0.1195
     29 C28        -3.4528    7.7872   -1.8756 C.ar      1 <0>        -0.0752
     30 C29        -3.8442    6.9379   -2.8949 C.ar      1 <0>        -0.1195
     31 C30        -3.5173    5.5980   -2.8439 C.ar      1 <0>        -0.0774
     32 O1         -3.9900   -2.1092   -6.6969 O.3       1 <0>        -0.4907
     33 H1         -2.0944   -1.5568   -1.7181 H         1 <0>         0.1031
     34 H2         -0.9267   -2.1414   -2.9276 H         1 <0>         0.1215
     35 H3         -0.8133   -0.4743   -2.3141 H         1 <0>         0.0925
     36 H4         -2.4243   -2.6986   -4.6846 H         1 <0>         0.1489
     37 H5         -4.7380    0.3927   -6.5205 H         1 <0>         0.1514
     38 H6         -4.0825    1.9508   -4.7353 H         1 <0>         0.1462
     39 H7         -3.3849    3.1475   -3.5696 H         1 <0>         0.1806
     40 H8         -1.3975    3.7949    0.1793 H         1 <0>         0.1822
     41 H9          1.2351    1.8148   -0.2248 H         1 <0>         0.0668
     42 H10         0.3968    3.0611    0.7300 H         1 <0>         0.1030
     43 H11         0.6582    1.6834    2.7702 H         1 <0>         0.0851
     44 H12         2.2419    2.0153    2.0268 H         1 <0>         0.0948
     45 H13         2.2160   -0.1986    0.9380 H         1 <0>         0.0772
     46 H14        -0.4336   -0.5756    2.4087 H         1 <0>         0.0886
     47 H15         0.3991   -1.7977    1.4168 H         1 <0>         0.0910
     48 H16        -1.4049   -0.6670    0.1335 H         1 <0>         0.0880
     49 H17         0.1965   -0.3346   -0.5686 H         1 <0>         0.0640
     50 H18         1.5703   -0.2614    3.9197 H         1 <0>         0.0780
     51 H19         2.2904   -1.6141    3.0143 H         1 <0>         0.0782
     52 H20         4.5602   -1.4755    2.1699 H         1 <0>         0.1199
     53 H21         6.7892   -0.4616    2.4280 H         1 <0>         0.1233
     54 H22         7.0414    1.6642    3.6447 H         1 <0>         0.1236
     55 H23         5.0635    2.7806    4.5958 H         1 <0>         0.1235
     56 H24         2.8333    1.7710    4.3304 H         1 <0>         0.1208
     57 H25        -1.8471    5.5791    0.1063 H         1 <0>         0.1320
     58 H26        -2.4295    7.9667   -0.0071 H         1 <0>         0.1379
     59 H27        -3.7102    8.8351   -1.9198 H         1 <0>         0.1369
     60 H28        -4.4064    7.3241   -3.7322 H         1 <0>         0.1381
     61 H29        -3.8228    4.9359   -3.6406 H         1 <0>         0.1318
     62 H30        -4.7998   -2.6020   -6.5062 H         1 <0>         0.4081
     63 N2         -1.7537    0.9178   -1.5880 N.ar      1 <0>        -0.5635
     64 H31        -1.4999   -0.0763   -1.5492 H         1 <0>         0.4669
@<TRIPOS>BOND
     1    1    2 1
     2    1   33 1
     3    1   34 1
     4    1   35 1
     5    2    7 ar
     6    2    3 ar
     7    3    4 ar
     8    3   36 1
     9    4    5 ar
    10    4   32 1
    11    5    6 ar
    12    5   37 1
    13    6    7 ar
    14    6   38 1
    15    7    8 1
    16    8    9 ar
    17    8   63 ar
    18    9   10 ar
    19    9   39 1
    20   10   11 ar
    21   10   26 1
    22   11   12 ar
    23   11   40 1
    24   12   13 1
    25   12   63 ar
    26   13   18 1
    27   13   14 1
    28   14   15 1
    29   14   41 1
    30   14   42 1
    31   15   16 1
    32   15   43 1
    33   15   44 1
    34   16   17 1
    35   16   19 1
    36   16   45 1
    37   17   18 1
    38   17   46 1
    39   17   47 1
    40   18   48 1
    41   18   49 1
    42   19   20 1
    43   19   50 1
    44   19   51 1
    45   20   25 ar
    46   20   21 ar
    47   21   22 ar
    48   21   52 1
    49   22   23 ar
    50   22   53 1
    51   23   24 ar
    52   23   54 1
    53   24   25 ar
    54   24   55 1
    55   25   56 1
    56   26   31 ar
    57   26   27 ar
    58   27   28 ar
    59   27   57 1
    60   28   29 ar
    61   28   58 1
    62   29   30 ar
    63   29   59 1
    64   30   31 ar
    65   30   60 1
    66   31   61 1
    67   32   62 1
    68   63   64 1
@<TRIPOS>MOLECULE
ZINC03815464
   59    62     0     0     0
SMALL
USER_CHARGES

@<TRIPOS>ATOM
      1 C1         -6.5989    1.8921   -2.4079 C.3       1 <0>        -0.1589
      2 C2         -5.9572    3.0986   -1.7199 C.3       1 <0>        -0.1510
      3 C3         -4.4347    2.9492   -1.7439 C.3       1 <0>         0.0854
      4 N1         -3.8202    4.1045   -1.0851 N.pl3     1 <0>        -0.5806
      5 C4         -3.5554    4.0711    0.3554 C.3       1 <0>         0.1632
      6 C5         -2.1757    3.5163    0.5998 C.ar      1 <0>         0.0838
      7 C6         -1.1092    4.3817    0.7558 C.ar      1 <0>        -0.1608
      8 C7          0.1558    3.8612    0.9806 C.ar      1 <0>        -0.0679
      9 C8          0.3015    2.4834    1.0404 C.ar      1 <0>        -0.1540
     10 C9         -0.8111    1.6809    0.8750 C.ar      1 <0>         0.1074
     11 N2         -1.9989    2.2109    0.6573 N.ar      1 <0>        -0.4687
     12 C10        -3.4883    5.2325   -1.8269 C.ar      1 <0>         0.4541
     13 C11        -2.8118    6.2812   -1.2154 C.ar      1 <0>        -0.2276
     14 C12        -2.4830    7.4093   -1.9681 C.ar      1 <0>         0.1400
     15 C13        -2.8502    7.4384   -3.3159 C.ar      1 <0>        -0.1783
     16 C14        -3.5255    6.3502   -3.8559 C.ar      1 <0>         0.2489
     17 C15        -3.9209    6.3685   -5.2850 C.ar      1 <0>        -0.1175
     18 C16        -3.7473    7.5258   -6.0432 C.ar      1 <0>        -0.0472
     19 C17        -4.1109    7.5381   -7.3728 C.ar      1 <0>        -0.1417
     20 C18        -4.6596    6.4026   -7.9546 C.ar      1 <0>         0.1614
     21 C19        -4.8390    5.2506   -7.2008 C.ar      1 <0>        -0.1384
     22 C20        -4.4723    5.2305   -5.8717 C.ar      1 <0>        -0.0466
     23 C21        -4.6670    3.9795   -5.0543 C.3       1 <0>        -0.1799
     24 O1         -5.0218    6.4193   -9.2638 O.3       1 <0>        -0.4911
     25 C22        -1.7605    8.5499   -1.3522 C.ar      1 <0>        -0.1002
     26 C23        -1.4058    8.5079   -0.0054 C.ar      1 <0>        -0.0807
     27 C24        -0.7285    9.5689    0.5606 C.ar      1 <0>        -0.1191
     28 C25        -0.4126   10.6778   -0.2034 C.ar      1 <0>        -0.0779
     29 C26        -0.7674   10.7273   -1.5395 C.ar      1 <0>        -0.1182
     30 C27        -1.4394    9.6693   -2.1173 C.ar      1 <0>        -0.0777
     31 H1         -6.2554    1.8378   -3.4410 H         1 <0>         0.0572
     32 H2         -6.3150    0.9805   -1.8822 H         1 <0>         0.0699
     33 H3         -7.6836    1.9986   -2.3908 H         1 <0>         0.0728
     34 H4         -6.3007    3.1530   -0.6869 H         1 <0>         0.0876
     35 H5         -6.2411    4.0102   -2.2457 H         1 <0>         0.0606
     36 H6         -4.0912    2.8949   -2.7769 H         1 <0>         0.0696
     37 H7         -4.1507    2.0376   -1.2181 H         1 <0>         0.1235
     38 H8         -4.2940    3.4372    0.8460 H         1 <0>         0.1229
     39 H9         -3.6176    5.0814    0.7598 H         1 <0>         0.1101
     40 H10        -1.2595    5.4499    0.7028 H         1 <0>         0.1319
     41 H11         1.0077    4.5131    1.1059 H         1 <0>         0.1427
     42 H12         1.2724    2.0433    1.2136 H         1 <0>         0.1444
     43 H13        -0.7060    0.6069    0.9202 H         1 <0>         0.1648
     44 H14        -2.5442    6.2239   -0.1706 H         1 <0>         0.1748
     45 H15        -2.6130    8.2948   -3.9296 H         1 <0>         0.1781
     46 H16        -3.3245    8.4104   -5.5902 H         1 <0>         0.1461
     47 H17        -3.9729    8.4328   -7.9616 H         1 <0>         0.1505
     48 H18        -5.2666    4.3693   -7.6558 H         1 <0>         0.1479
     49 H19        -5.5984    4.0535   -4.4930 H         1 <0>         0.1030
     50 H20        -4.7099    3.1153   -5.7172 H         1 <0>         0.1197
     51 H21        -3.8334    3.8648   -4.3614 H         1 <0>         0.0933
     52 H22        -5.9350    6.6987   -9.4156 H         1 <0>         0.4072
     53 H23        -1.6562    7.6445    0.5932 H         1 <0>         0.1269
     54 H24        -0.4489    9.5353    1.6033 H         1 <0>         0.1368
     55 H25         0.1132   11.5079    0.2447 H         1 <0>         0.1362
     56 H26        -0.5176   11.5953   -2.1317 H         1 <0>         0.1377
     57 H27        -1.7156    9.7088   -3.1607 H         1 <0>         0.1324
     58 N3         -3.8544    5.2296   -3.1409 N.ar      1 <0>        -0.5742
     59 H28        -4.3464    4.4358   -3.5677 H         1 <0>         0.4654
@<TRIPOS>BOND
     1    1    2 1
     2    1   31 1
     3    1   32 1
     4    1   33 1
     5    2    3 1
     6    2   34 1
     7    2   35 1
     8    3    4 1
     9    3   36 1
    10    3   37 1
    11    4    5 1
    12    4   12 1
    13    5    6 1
    14    5   38 1
    15    5   39 1
    16    6   11 ar
    17    6    7 ar
    18    7    8 ar
    19    7   40 1
    20    8    9 ar
    21    8   41 1
    22    9   10 ar
    23    9   42 1
    24   10   11 ar
    25   10   43 1
    26   12   13 ar
    27   12   58 ar
    28   13   14 ar
    29   13   44 1
    30   14   15 ar
    31   14   25 1
    32   15   16 ar
    33   15   45 1
    34   16   17 1
    35   16   58 ar
    36   17   22 ar
    37   17   18 ar
    38   18   19 ar
    39   18   46 1
    40   19   20 ar
    41   19   47 1
    42   20   21 ar
    43   20   24 1
    44   21   22 ar
    45   21   48 1
    46   22   23 1
    47   23   49 1
    48   23   50 1
    49   23   51 1
    50   24   52 1
    51   25   30 ar
    52   25   26 ar
    53   26   27 ar
    54   26   53 1
    55   27   28 ar
    56   27   54 1
    57   28   29 ar
    58   28   55 1
    59   29   30 ar
    60   29   56 1
    61   30   57 1
    62   58   59 1
@<TRIPOS>MOLECULE
ZINC03815465
   67    71     0     0     0
SMALL
USER_CHARGES

@<TRIPOS>ATOM
      1 C1          4.3049   -1.6883   -5.7467 C.3       1 <0>        -0.1393
      2 C2          4.5937   -3.1505   -5.9694 C.ar      1 <0>        -0.0374
      3 C3          5.0526   -3.5845   -7.1952 C.ar      1 <0>        -0.1437
      4 C4          5.3189   -4.9314   -7.4012 C.ar      1 <0>         0.1588
      5 C5          5.1241   -5.8456   -6.3740 C.ar      1 <0>        -0.1471
      6 C6          4.6702   -5.4172   -5.1449 C.ar      1 <0>        -0.0485
      7 C7          4.3968   -4.0658   -4.9366 C.ar      1 <0>        -0.1321
      8 C8          3.9035   -3.6024   -3.6172 C.ar      1 <0>         0.2520
      9 C9          2.8680   -4.2871   -2.9914 C.ar      1 <0>        -0.1666
     10 C10         2.4117   -3.8405   -1.7490 C.ar      1 <0>         0.1408
     11 C11         3.0187   -2.7177   -1.1839 C.ar      1 <0>        -0.2195
     12 C12         4.0484   -2.0868   -1.8709 C.ar      1 <0>         0.4656
     13 N1          4.6590   -0.9678   -1.3159 N.pl3     1 <0>        -0.5837
     14 C13         5.8685   -0.4136   -1.9292 C.3       1 <0>         0.1027
     15 C14         7.1035   -1.0085   -1.2495 C.3       1 <0>        -0.0967
     16 C15         8.3442   -0.3542   -1.8005 C.ar      1 <0>        -0.1005
     17 C16         9.0334   -0.9464   -2.8422 C.ar      1 <0>        -0.1174
     18 C17        10.1686   -0.3435   -3.3511 C.ar      1 <0>        -0.1140
     19 C18        10.6206    0.8459   -2.8110 C.ar      1 <0>        -0.1104
     20 C19         9.9346    1.4352   -1.7655 C.ar      1 <0>        -0.1121
     21 C20         8.7963    0.8352   -1.2604 C.ar      1 <0>        -0.1111
     22 C21         4.0929   -0.3429   -0.1179 C.3       1 <0>         0.1516
     23 C22         3.0983    0.7136   -0.5247 C.ar      1 <0>        -0.1321
     24 C23         1.7679    0.3804   -0.6979 C.ar      1 <0>        -0.1044
     25 C24         0.8556    1.3494   -1.0715 C.ar      1 <0>        -0.1157
     26 C25         1.2737    2.6517   -1.2720 C.ar      1 <0>        -0.1004
     27 C26         2.6040    2.9850   -1.0984 C.ar      1 <0>        -0.1151
     28 C27         3.5164    2.0159   -0.7252 C.ar      1 <0>        -0.0987
     29 C28         1.3083   -4.5423   -1.0473 C.ar      1 <0>        -0.1028
     30 C29         0.8681   -4.0874    0.1940 C.ar      1 <0>        -0.0784
     31 C30        -0.1626   -4.7402    0.8394 C.ar      1 <0>        -0.1199
     32 C31        -0.7504   -5.8511    0.2616 C.ar      1 <0>        -0.0765
     33 C32        -0.3131   -6.3106   -0.9676 C.ar      1 <0>        -0.1192
     34 C33         0.7127   -5.6618   -1.6247 C.ar      1 <0>        -0.0766
     35 O1          5.7712   -5.3559   -8.6097 O.3       1 <0>        -0.4925
     36 H1          5.2062   -1.1902   -5.3893 H         1 <0>         0.0750
     37 H2          3.9864   -1.2338   -6.6848 H         1 <0>         0.0949
     38 H3          3.5133   -1.5832   -5.0048 H         1 <0>         0.0679
     39 H4          5.2053   -2.8758   -7.9958 H         1 <0>         0.1448
     40 H5          5.3321   -6.8928   -6.5372 H         1 <0>         0.1471
     41 H6          4.5229   -6.1280   -4.3452 H         1 <0>         0.1428
     42 H7          2.4227   -5.1527   -3.4593 H         1 <0>         0.1796
     43 H8          2.6922   -2.3443   -0.2246 H         1 <0>         0.1789
     44 H9          5.8836   -0.6607   -2.9907 H         1 <0>         0.0724
     45 H10         5.8736    0.6697   -1.8082 H         1 <0>         0.1131
     46 H11         7.0468   -0.8332   -0.1752 H         1 <0>         0.0914
     47 H12         7.1425   -2.0808   -1.4412 H         1 <0>         0.0760
     48 H13         8.6827   -1.8780   -3.2612 H         1 <0>         0.1172
     49 H14        10.7043   -0.8038   -4.1681 H         1 <0>         0.1263
     50 H15        11.5096    1.3150   -3.2060 H         1 <0>         0.1277
     51 H16        10.2879    2.3645   -1.3435 H         1 <0>         0.1281
     52 H17         8.2603    1.2956   -0.4436 H         1 <0>         0.1234
     53 H18         4.8919    0.1154    0.4649 H         1 <0>         0.1130
     54 H19         3.5921   -1.1005    0.4849 H         1 <0>         0.1029
     55 H20         1.4413   -0.6371   -0.5416 H         1 <0>         0.1201
     56 H21        -0.1837    1.0890   -1.2071 H         1 <0>         0.1283
     57 H22         0.5619    3.4078   -1.5686 H         1 <0>         0.1291
     58 H23         2.9307    4.0024   -1.2553 H         1 <0>         0.1292
     59 H24         4.5558    2.2761   -0.5903 H         1 <0>         0.1238
     60 H25         1.3293   -3.2229    0.6481 H         1 <0>         0.1291
     61 H26        -0.5079   -4.3857    1.7993 H         1 <0>         0.1369
     62 H27        -1.5538   -6.3613    0.7719 H         1 <0>         0.1361
     63 H28        -0.7755   -7.1784   -1.4142 H         1 <0>         0.1375
     64 H29         1.0529   -6.0210   -2.5847 H         1 <0>         0.1330
     65 H30         6.7347   -5.3552   -8.6914 H         1 <0>         0.4054
     66 N2          4.5112   -2.4958   -3.0875 N.ar      1 <0>        -0.5483
     67 H31         5.2687   -2.0038   -3.5758 H         1 <0>         0.4581
@<TRIPOS>BOND
     1    1    2 1
     2    1   36 1
     3    1   37 1
     4    1   38 1
     5    2    7 ar
     6    2    3 ar
     7    3    4 ar
     8    3   39 1
     9    4    5 ar
    10    4   35 1
    11    5    6 ar
    12    5   40 1
    13    6    7 ar
    14    6   41 1
    15    7    8 1
    16    8    9 ar
    17    8   66 ar
    18    9   10 ar
    19    9   42 1
    20   10   11 ar
    21   10   29 1
    22   11   12 ar
    23   11   43 1
    24   12   13 1
    25   12   66 ar
    26   13   14 1
    27   13   22 1
    28   14   15 1
    29   14   44 1
    30   14   45 1
    31   15   16 1
    32   15   46 1
    33   15   47 1
    34   16   21 ar
    35   16   17 ar
    36   17   18 ar
    37   17   48 1
    38   18   19 ar
    39   18   49 1
    40   19   20 ar
    41   19   50 1
    42   20   21 ar
    43   20   51 1
    44   21   52 1
    45   22   23 1
    46   22   53 1
    47   22   54 1
    48   23   28 ar
    49   23   24 ar
    50   24   25 ar
    51   24   55 1
    52   25   26 ar
    53   25   56 1
    54   26   27 ar
    55   26   57 1
    56   27   28 ar
    57   27   58 1
    58   28   59 1
    59   29   34 ar
    60   29   30 ar
    61   30   31 ar
    62   30   60 1
    63   31   32 ar
    64   31   61 1
    65   32   33 ar
    66   32   62 1
    67   33   34 ar
    68   33   63 1
    69   34   64 1
    70   35   65 1
    71   66   67 1
@<TRIPOS>MOLECULE
ZINC03815466
   57    60     0     0     0
SMALL
USER_CHARGES

@<TRIPOS>ATOM
      1 C1         -0.6359   -0.0502    1.1514 C.3       1 <0>        -0.1358
      2 C2          0.2388    0.3970    0.0086 C.ar      1 <0>        -0.0368
      3 C3          0.4006    1.7415   -0.2517 C.ar      1 <0>        -0.1435
      4 C4          1.2067    2.1542   -1.3040 C.ar      1 <0>         0.1584
      5 C5          1.8524    1.2150   -2.0976 C.ar      1 <0>        -0.1473
      6 C6          1.6946   -0.1305   -1.8424 C.ar      1 <0>        -0.0486
      7 C7          0.8857   -0.5481   -0.7862 C.ar      1 <0>        -0.1347
      8 C8          0.7135   -1.9946   -0.5093 C.ar      1 <0>         0.2516
      9 C9          1.8339   -2.8056   -0.3682 C.ar      1 <0>        -0.1653
     10 C10         1.6586   -4.1667   -0.1075 C.ar      1 <0>         0.1404
     11 C11         0.3569   -4.6590    0.0012 C.ar      1 <0>        -0.2168
     12 C12        -0.7124   -3.7855   -0.1523 C.ar      1 <0>         0.4600
     13 N1         -2.0125   -4.2667   -0.0457 N.pl3     1 <0>        -0.5902
     14 C13        -2.2507   -5.7025    0.1209 C.3       1 <0>         0.0702
     15 C14        -3.1441   -3.3378   -0.1001 C.3       1 <0>         0.0949
     16 C15        -3.5414   -3.1030   -1.5588 C.3       1 <0>        -0.1016
     17 C16        -4.6348   -2.0677   -1.6212 C.ar      1 <0>        -0.1025
     18 C17        -5.9568   -2.4500   -1.4903 C.ar      1 <0>        -0.1096
     19 C18        -6.9595   -1.4998   -1.5427 C.ar      1 <0>        -0.1109
     20 C19        -6.6408   -0.1686   -1.7359 C.ar      1 <0>        -0.1095
     21 C20        -5.3191    0.2129   -1.8724 C.ar      1 <0>        -0.1122
     22 C21        -4.3162   -0.7366   -1.8148 C.ar      1 <0>        -0.1201
     23 C22         2.8276   -5.0671    0.0505 C.ar      1 <0>        -0.1039
     24 C23         2.6361   -6.4215    0.3161 C.ar      1 <0>        -0.0774
     25 C24         3.7268   -7.2555    0.4565 C.ar      1 <0>        -0.1205
     26 C25         5.0083   -6.7468    0.3458 C.ar      1 <0>        -0.0763
     27 C26         5.2043   -5.4021    0.0879 C.ar      1 <0>        -0.1198
     28 C27         4.1207   -4.5602   -0.0604 C.ar      1 <0>        -0.0767
     29 O1          1.3642    3.4794   -1.5579 O.3       1 <0>        -0.4935
     30 H1         -1.6336   -0.2794    0.7771 H         1 <0>         0.0713
     31 H2         -0.2067   -0.9407    1.6106 H         1 <0>         0.0695
     32 H3         -0.7001    0.7461    1.8929 H         1 <0>         0.0932
     33 H4         -0.1039    2.4740    0.3609 H         1 <0>         0.1448
     34 H5          2.4788    1.5391   -2.9155 H         1 <0>         0.1469
     35 H6          2.1968   -0.8603   -2.4601 H         1 <0>         0.1423
     36 H7          2.8261   -2.3890   -0.4593 H         1 <0>         0.1799
     37 H8          0.1833   -5.7057    0.2025 H         1 <0>         0.1808
     38 H9         -2.2673   -5.9472    1.1830 H         1 <0>         0.0832
     39 H10        -3.2084   -5.9664   -0.3278 H         1 <0>         0.0984
     40 H11        -1.4536   -6.2623   -0.3684 H         1 <0>         0.0892
     41 H12        -3.9887   -3.7621    0.4427 H         1 <0>         0.1186
     42 H13        -2.8583   -2.3899    0.3558 H         1 <0>         0.0797
     43 H14        -2.6753   -2.7508   -2.1192 H         1 <0>         0.0710
     44 H15        -3.8998   -4.0365   -1.9926 H         1 <0>         0.0936
     45 H16        -6.2061   -3.4905   -1.3435 H         1 <0>         0.1247
     46 H17        -7.9921   -1.7979   -1.4364 H         1 <0>         0.1291
     47 H18        -7.4244    0.5732   -1.7805 H         1 <0>         0.1287
     48 H19        -5.0702    1.2528   -2.0237 H         1 <0>         0.1272
     49 H20        -3.2836   -0.4386   -1.9215 H         1 <0>         0.1143
     50 H21         1.6360   -6.8187    0.4074 H         1 <0>         0.1304
     51 H22         3.5795   -8.3063    0.6575 H         1 <0>         0.1371
     52 H23         5.8591   -7.4021    0.4608 H         1 <0>         0.1363
     53 H24         6.2070   -5.0102    0.0022 H         1 <0>         0.1376
     54 H25         4.2748   -3.5105   -0.2624 H         1 <0>         0.1330
     55 H26         2.1068    3.8841   -1.0892 H         1 <0>         0.4064
     56 N2         -0.5727   -2.4513   -0.4012 N.ar      1 <0>        -0.5481
     57 H27        -1.3824   -1.8280   -0.5014 H         1 <0>         0.4590
@<TRIPOS>BOND
     1    1    2 1
     2    1   30 1
     3    1   31 1
     4    1   32 1
     5    2    7 ar
     6    2    3 ar
     7    3    4 ar
     8    3   33 1
     9    4    5 ar
    10    4   29 1
    11    5    6 ar
    12    5   34 1
    13    6    7 ar
    14    6   35 1
    15    7    8 1
    16    8    9 ar
    17    8   56 ar
    18    9   10 ar
    19    9   36 1
    20   10   11 ar
    21   10   23 1
    22   11   12 ar
    23   11   37 1
    24   12   13 1
    25   12   56 ar
    26   13   14 1
    27   13   15 1
    28   14   38 1
    29   14   39 1
    30   14   40 1
    31   15   16 1
    32   15   41 1
    33   15   42 1
    34   16   17 1
    35   16   43 1
    36   16   44 1
    37   17   22 ar
    38   17   18 ar
    39   18   19 ar
    40   18   45 1
    41   19   20 ar
    42   19   46 1
    43   20   21 ar
    44   20   47 1
    45   21   22 ar
    46   21   48 1
    47   22   49 1
    48   23   28 ar
    49   23   24 ar
    50   24   25 ar
    51   24   50 1
    52   25   26 ar
    53   25   51 1
    54   26   27 ar
    55   26   52 1
    56   27   28 ar
    57   27   53 1
    58   28   54 1
    59   29   55 1
    60   56   57 1
@<TRIPOS>MOLECULE
ZINC03815467
   56    59     0     0     0
SMALL
USER_CHARGES

@<TRIPOS>ATOM
      1 C1         -6.2349    1.9142   -2.2060 C.3       1 <0>        -0.1569
      2 C2         -5.3792    3.0311   -1.6049 C.3       1 <0>        -0.1475
      3 C3         -3.9030    2.7571   -1.8989 C.3       1 <0>         0.0892
      4 N1         -3.0837    3.8265   -1.3233 N.pl3     1 <0>        -0.5784
      5 C4         -2.5800    3.7066    0.0471 C.3       1 <0>         0.1627
      6 C5         -1.2342    3.0288    0.0301 C.ar      1 <0>         0.0835
      7 C6         -0.0836    3.7947    0.0232 C.ar      1 <0>        -0.1609
      8 C7          1.1495    3.1614    0.0081 C.ar      1 <0>        -0.0678
      9 C8          1.1793    1.7750    0.0003 C.ar      1 <0>        -0.1536
     10 C9         -0.0126    1.0758    0.0080 C.ar      1 <0>         0.1080
     11 N2         -1.1678    1.7119    0.0169 N.ar      1 <0>        -0.4685
     12 C10        -2.7842    4.9553   -2.0777 C.ar      1 <0>         0.4677
     13 C11        -1.9217    5.9156   -1.5627 C.ar      1 <0>        -0.2274
     14 C12        -1.6271    7.0452   -2.3273 C.ar      1 <0>         0.1434
     15 C13        -2.2158    7.1652   -3.5888 C.ar      1 <0>        -0.1767
     16 C14        -3.0683    6.1623   -4.0348 C.ar      1 <0>         0.2540
     17 C15        -3.6996    6.2775   -5.3716 C.ar      1 <0>        -0.1225
     18 C16        -3.4421    7.3895   -6.1722 C.ar      1 <0>        -0.0493
     19 C17        -4.0268    7.4915   -7.4166 C.ar      1 <0>        -0.1401
     20 C18        -4.8796    6.4931   -7.8686 C.ar      1 <0>         0.1591
     21 C19        -5.1421    5.3869   -7.0714 C.ar      1 <0>        -0.1386
     22 C20        -4.5563    5.2767   -5.8281 C.ar      1 <0>        -0.0763
     23 O1         -5.4586    6.5991   -9.0928 O.3       1 <0>        -0.4921
     24 C21        -0.7105    8.0931   -1.8133 C.ar      1 <0>        -0.1019
     25 C22        -0.1355    7.9613   -0.5510 C.ar      1 <0>        -0.0797
     26 C23         0.7211    8.9359   -0.0806 C.ar      1 <0>        -0.1192
     27 C24         0.9997   10.0477   -0.8548 C.ar      1 <0>        -0.0766
     28 C25         0.4268   10.1867   -2.1061 C.ar      1 <0>        -0.1184
     29 C26        -0.4264    9.2152   -2.5890 C.ar      1 <0>        -0.0767
     30 H1         -7.2866    2.1095   -1.9965 H         1 <0>         0.0713
     31 H2         -6.0798    1.8780   -3.2843 H         1 <0>         0.0577
     32 H3         -5.9478    0.9595   -1.7653 H         1 <0>         0.0678
     33 H4         -5.5343    3.0674   -0.5266 H         1 <0>         0.0845
     34 H5         -5.6663    3.9859   -2.0455 H         1 <0>         0.0619
     35 H6         -3.7479    2.7208   -2.9772 H         1 <0>         0.0750
     36 H7         -3.6159    1.8023   -1.4582 H         1 <0>         0.1221
     37 H8         -3.2774    3.1148    0.6400 H         1 <0>         0.1234
     38 H9         -2.4813    4.6994    0.4861 H         1 <0>         0.1103
     39 H10        -0.1444    4.8730    0.0293 H         1 <0>         0.1317
     40 H11         2.0651    3.7341    0.0020 H         1 <0>         0.1428
     41 H12         2.1221    1.2484   -0.0119 H         1 <0>         0.1445
     42 H13         0.0021   -0.0041    0.0020 H         1 <0>         0.1649
     43 H14        -1.4853    5.7894   -0.5829 H         1 <0>         0.1772
     44 H15        -2.0109    8.0253   -4.2089 H         1 <0>         0.1799
     45 H16        -2.7825    8.1685   -5.8194 H         1 <0>         0.1444
     46 H17        -3.8248    8.3509   -8.0388 H         1 <0>         0.1498
     47 H18        -5.8055    4.6118   -7.4257 H         1 <0>         0.1471
     48 H19        -4.7611    4.4163   -5.2084 H         1 <0>         0.1212
     49 H20        -6.3125    7.0529   -9.0861 H         1 <0>         0.4074
     50 H21        -0.3559    7.0957    0.0561 H         1 <0>         0.1272
     51 H22         1.1711    8.8324    0.8957 H         1 <0>         0.1372
     52 H23         1.6673   10.8100   -0.4811 H         1 <0>         0.1365
     53 H24         0.6478   11.0568   -2.7065 H         1 <0>         0.1380
     54 H25        -0.8726    9.3243   -3.5664 H         1 <0>         0.1326
     55 N3         -3.3688    5.0418   -3.3071 N.ar      1 <0>        -0.5522
     56 H26        -3.9958    4.3117   -3.6650 H         1 <0>         0.4573
@<TRIPOS>BOND
     1    1    2 1
     2    1   30 1
     3    1   31 1
     4    1   32 1
     5    2    3 1
     6    2   33 1
     7    2   34 1
     8    3    4 1
     9    3   35 1
    10    3   36 1
    11    4    5 1
    12    4   12 1
    13    5    6 1
    14    5   37 1
    15    5   38 1
    16    6   11 ar
    17    6    7 ar
    18    7    8 ar
    19    7   39 1
    20    8    9 ar
    21    8   40 1
    22    9   10 ar
    23    9   41 1
    24   10   11 ar
    25   10   42 1
    26   12   13 ar
    27   12   55 ar
    28   13   14 ar
    29   13   43 1
    30   14   15 ar
    31   14   24 1
    32   15   16 ar
    33   15   44 1
    34   16   17 1
    35   16   55 ar
    36   17   22 ar
    37   17   18 ar
    38   18   19 ar
    39   18   45 1
    40   19   20 ar
    41   19   46 1
    42   20   21 ar
    43   20   23 1
    44   21   22 ar
    45   21   47 1
    46   22   48 1
    47   23   49 1
    48   24   29 ar
    49   24   25 ar
    50   25   26 ar
    51   25   50 1
    52   26   27 ar
    53   26   51 1
    54   27   28 ar
    55   27   52 1
    56   28   29 ar
    57   28   53 1
    58   29   54 1
    59   55   56 1
@<TRIPOS>MOLECULE
ZINC03815468
   56    58     0     0     0
SMALL
USER_CHARGES

@<TRIPOS>ATOM
      1 C1         -0.3214    5.5035    0.1320 C.3       1 <0>        -0.1795
      2 C2          0.9402    6.3203    0.2436 C.ar      1 <0>        -0.0473
      3 C3          0.8889    7.6915    0.1072 C.ar      1 <0>        -0.1384
      4 C4          2.0507    8.4447    0.2099 C.ar      1 <0>         0.1611
      5 C5          3.2676    7.8201    0.4501 C.ar      1 <0>        -0.1415
      6 C6          3.3245    6.4500    0.5922 C.ar      1 <0>        -0.0475
      7 C7          2.1602    5.6904    0.4843 C.ar      1 <0>        -0.1172
      8 C8          2.2188    4.2160    0.6314 C.ar      1 <0>         0.2475
      9 C9          3.4529    3.5838    0.7314 C.ar      1 <0>        -0.1780
     10 C10         3.4950    2.1943    0.8692 C.ar      1 <0>         0.1394
     11 C11         2.2879    1.4941    0.9008 C.ar      1 <0>        -0.2225
     12 C12         1.0942    2.1971    0.7951 C.ar      1 <0>         0.4507
     13 N1         -0.1130    1.5082    0.8257 N.pl3     1 <0>        -0.5922
     14 C13        -0.1268    0.0651    1.0781 C.3       1 <0>         0.0718
     15 C14        -1.3709    2.2242    0.5994 C.3       1 <0>         0.0838
     16 C15        -1.9219    2.7223    1.9370 C.3       1 <0>        -0.1454
     17 C16        -3.2356    3.4702    1.7007 C.3       1 <0>        -0.0960
     18 C17        -4.2880    2.4962    1.1669 C.3       1 <0>        -0.1568
     19 C18        -3.7225    4.0749    3.0191 C.3       1 <0>        -0.1528
     20 C19         4.7912    1.4802    0.9787 C.ar      1 <0>        -0.1018
     21 C20         4.8162    0.0943    1.1209 C.ar      1 <0>        -0.0785
     22 C21         6.0247   -0.5654    1.2160 C.ar      1 <0>        -0.1201
     23 C22         7.2094    0.1478    1.1824 C.ar      1 <0>        -0.0780
     24 C23         7.1903    1.5243    1.0476 C.ar      1 <0>        -0.1195
     25 C24         5.9876    2.1936    0.9454 C.ar      1 <0>        -0.0783
     26 O1          1.9970    9.7954    0.0755 O.3       1 <0>        -0.4911
     27 H1         -0.7082    5.2943    1.1293 H         1 <0>         0.1021
     28 H2         -1.0657    6.0606   -0.4370 H         1 <0>         0.1195
     29 H3         -0.1026    4.5649   -0.3772 H         1 <0>         0.0935
     30 H4         -0.0560    8.1801   -0.0794 H         1 <0>         0.1478
     31 H5          4.1697    8.4086    0.5295 H         1 <0>         0.1505
     32 H6          4.2705    5.9652    0.7831 H         1 <0>         0.1462
     33 H7          4.3665    4.1590    0.7034 H         1 <0>         0.1777
     34 H8          2.2819    0.4193    1.0066 H         1 <0>         0.1783
     35 H9         -0.2058   -0.1154    2.1501 H         1 <0>         0.0812
     36 H10        -0.9799   -0.3845    0.5700 H         1 <0>         0.0974
     37 H11         0.7952   -0.3783    0.7020 H         1 <0>         0.0887
     38 H12        -1.1918    3.0742   -0.0590 H         1 <0>         0.0711
     39 H13        -2.0934    1.5520    0.1365 H         1 <0>         0.1187
     40 H14        -2.1011    1.8723    2.5954 H         1 <0>         0.0882
     41 H15        -1.1994    3.3945    2.3999 H         1 <0>         0.0624
     42 H16        -3.0750    4.2660    0.9734 H         1 <0>         0.0719
     43 H17        -3.9411    2.0654    0.2277 H         1 <0>         0.0553
     44 H18        -4.4487    1.7004    1.8942 H         1 <0>         0.0620
     45 H19        -5.2239    3.0290    0.9986 H         1 <0>         0.0658
     46 H20        -2.9728    4.7687    3.3994 H         1 <0>         0.0549
     47 H21        -4.6584    4.6076    2.8507 H         1 <0>         0.0657
     48 H22        -3.8832    3.2791    3.7464 H         1 <0>         0.0609
     49 H23         3.8916   -0.4631    1.1517 H         1 <0>         0.1301
     50 H24         6.0454   -1.6401    1.3214 H         1 <0>         0.1368
     51 H25         8.1528   -0.3720    1.2614 H         1 <0>         0.1360
     52 H26         8.1182    2.0763    1.0219 H         1 <0>         0.1374
     53 H27         5.9738    3.2683    0.8395 H         1 <0>         0.1320
     54 H28         1.8518   10.2679    0.9067 H         1 <0>         0.4072
     55 N2          1.0216    3.5521    0.6537 N.ar      1 <0>        -0.5762
     56 H29         0.1243    4.0439    0.5692 H         1 <0>         0.4648
@<TRIPOS>BOND
     1    1    2 1
     2    1   27 1
     3    1   28 1
     4    1   29 1
     5    2    7 ar
     6    2    3 ar
     7    3    4 ar
     8    3   30 1
     9    4    5 ar
    10    4   26 1
    11    5    6 ar
    12    5   31 1
    13    6    7 ar
    14    6   32 1
    15    7    8 1
    16    8    9 ar
    17    8   55 ar
    18    9   10 ar
    19    9   33 1
    20   10   11 ar
    21   10   20 1
    22   11   12 ar
    23   11   34 1
    24   12   13 1
    25   12   55 ar
    26   13   14 1
    27   13   15 1
    28   14   35 1
    29   14   36 1
    30   14   37 1
    31   15   16 1
    32   15   38 1
    33   15   39 1
    34   16   17 1
    35   16   40 1
    36   16   41 1
    37   17   18 1
    38   17   19 1
    39   17   42 1
    40   18   43 1
    41   18   44 1
    42   18   45 1
    43   19   46 1
    44   19   47 1
    45   19   48 1
    46   20   25 ar
    47   20   21 ar
    48   21   22 ar
    49   21   49 1
    50   22   23 ar
    51   22   50 1
    52   23   24 ar
    53   23   51 1
    54   24   25 ar
    55   24   52 1
    56   25   53 1
    57   26   54 1
    58   55   56 1
@<TRIPOS>MOLECULE
ZINC03815469
   60    64     0     0     0
SMALL
USER_CHARGES

@<TRIPOS>ATOM
      1 C1          4.3423    0.6892    2.2367 C.3       1 <0>        -0.1389
      2 C2          4.6360    1.7983    1.2596 C.ar      1 <0>        -0.0378
      3 C3          5.8402    2.4677    1.3168 C.ar      1 <0>        -0.1443
      4 C4          6.1113    3.4899    0.4173 C.ar      1 <0>         0.1586
      5 C5          5.1713    3.8412   -0.5429 C.ar      1 <0>        -0.1471
      6 C6          3.9676    3.1725   -0.6081 C.ar      1 <0>        -0.0489
      7 C7          3.6903    2.1490    0.2973 C.ar      1 <0>        -0.1325
      8 C8          2.3945    1.4309    0.2328 C.ar      1 <0>         0.2511
      9 C9          1.2106    2.1551    0.1521 C.ar      1 <0>        -0.1644
     10 C10        -0.0036    1.4672    0.0919 C.ar      1 <0>         0.1411
     11 C11         0.0228    0.0717    0.1154 C.ar      1 <0>        -0.2119
     12 C12         1.2464   -0.5811    0.1973 C.ar      1 <0>         0.4611
     13 N1          1.2826   -1.9708    0.2208 N.pl3     1 <0>        -0.5911
     14 C13         2.5566   -2.6671    0.4171 C.3       1 <0>         0.0591
     15 C14         0.0469   -2.7388    0.0493 C.3       1 <0>         0.1554
     16 C15        -0.2448   -2.8994   -1.4205 C.ar      1 <0>        -0.1162
     17 C16         0.6500   -2.4603   -2.3476 C.ar      1 <0>        -0.1002
     18 C17         0.4007   -2.6063   -3.7106 C.ar      1 <0>        -0.1225
     19 C18        -0.7506   -3.1809   -4.1549 C.ar      1 <0>        -0.0855
     20 C19        -1.7008   -3.6407   -3.2278 C.ar      1 <0>        -0.0492
     21 C20        -1.4443   -3.4981   -1.8410 C.ar      1 <0>        -0.0372
     22 C21        -2.3952   -3.9576   -0.9137 C.ar      1 <0>        -0.1249
     23 C22        -3.5464   -4.5316   -1.3581 C.ar      1 <0>        -0.0969
     24 C23        -3.7988   -4.6714   -2.7217 C.ar      1 <0>        -0.1117
     25 C24        -2.9013   -4.2383   -3.6485 C.ar      1 <0>        -0.0983
     26 C25        -1.2897    2.2017   -0.0011 C.ar      1 <0>        -0.1038
     27 C26        -2.4918    1.5006   -0.0721 C.ar      1 <0>        -0.0757
     28 C27        -3.6854    2.1890   -0.1526 C.ar      1 <0>        -0.1203
     29 C28        -3.6890    3.5720   -0.1750 C.ar      1 <0>        -0.0760
     30 C29        -2.4982    4.2729   -0.1105 C.ar      1 <0>        -0.1200
     31 C30        -1.2992    3.5948   -0.0235 C.ar      1 <0>        -0.0765
     32 O1          7.2985    4.1475    0.4761 O.3       1 <0>        -0.4926
     33 H1          4.7477   -0.2479    1.8552 H         1 <0>         0.0781
     34 H2          4.8028    0.9200    3.1973 H         1 <0>         0.0945
     35 H3          3.2641    0.5935    2.3643 H         1 <0>         0.0656
     36 H4          6.5734    2.1962    2.0619 H         1 <0>         0.1450
     37 H5          5.3852    4.6366   -1.2415 H         1 <0>         0.1470
     38 H6          3.2387    3.4434   -1.3576 H         1 <0>         0.1425
     39 H7          1.2294    3.2348    0.1359 H         1 <0>         0.1800
     40 H8         -0.8965   -0.4934    0.0701 H         1 <0>         0.1788
     41 H9          2.6834   -2.9014    1.4740 H         1 <0>         0.0904
     42 H10         2.5592   -3.5901   -0.1626 H         1 <0>         0.1070
     43 H11         3.3749   -2.0277    0.0859 H         1 <0>         0.0681
     44 H12         0.1635   -3.7215    0.5061 H         1 <0>         0.1201
     45 H13        -0.7781   -2.2112    0.5279 H         1 <0>         0.1055
     46 H14         1.5692   -1.9964   -2.0217 H         1 <0>         0.1096
     47 H15         1.1295   -2.2538   -4.4254 H         1 <0>         0.1254
     48 H16        -0.9325   -3.2831   -5.2146 H         1 <0>         0.1329
     49 H17        -2.2136   -3.8553    0.1460 H         1 <0>         0.1264
     50 H18        -4.2754   -4.8838   -0.6434 H         1 <0>         0.1290
     51 H19        -4.7204   -5.1306   -3.0477 H         1 <0>         0.1298
     52 H20        -3.1106   -4.3530   -4.7018 H         1 <0>         0.1326
     53 H21        -2.4898    0.4207   -0.0596 H         1 <0>         0.1294
     54 H22        -4.6180    1.6467   -0.2029 H         1 <0>         0.1366
     55 H23        -4.6249    4.1066   -0.2426 H         1 <0>         0.1362
     56 H24        -2.5068    5.3527   -0.1279 H         1 <0>         0.1377
     57 H25        -0.3701    4.1431    0.0275 H         1 <0>         0.1331
     58 H26         7.9944    3.7520   -0.0665 H         1 <0>         0.4055
     59 N2          2.4476    0.0631    0.2574 N.ar      1 <0>        -0.5476
     60 H27         3.3369   -0.4467    0.3174 H         1 <0>         0.4586
@<TRIPOS>BOND
     1    1    2 1
     2    1   33 1
     3    1   34 1
     4    1   35 1
     5    2    7 ar
     6    2    3 ar
     7    3    4 ar
     8    3   36 1
     9    4    5 ar
    10    4   32 1
    11    5    6 ar
    12    5   37 1
    13    6    7 ar
    14    6   38 1
    15    7    8 1
    16    8    9 ar
    17    8   59 ar
    18    9   10 ar
    19    9   39 1
    20   10   11 ar
    21   10   26 1
    22   11   12 ar
    23   11   40 1
    24   12   13 1
    25   12   59 ar
    26   13   14 1
    27   13   15 1
    28   14   41 1
    29   14   42 1
    30   14   43 1
    31   15   16 1
    32   15   44 1
    33   15   45 1
    34   16   21 ar
    35   16   17 ar
    36   17   18 ar
    37   17   46 1
    38   18   19 ar
    39   18   47 1
    40   19   20 ar
    41   19   48 1
    42   20   25 ar
    43   20   21 ar
    44   21   22 ar
    45   22   23 ar
    46   22   49 1
    47   23   24 ar
    48   23   50 1
    49   24   25 ar
    50   24   51 1
    51   25   52 1
    52   26   31 ar
    53   26   27 ar
    54   27   28 ar
    55   27   53 1
    56   28   29 ar
    57   28   54 1
    58   29   30 ar
    59   29   55 1
    60   30   31 ar
    61   30   56 1
    62   31   57 1
    63   32   58 1
    64   59   60 1
@<TRIPOS>MOLECULE
ZINC03815470
   54    57     0     0     0
SMALL
USER_CHARGES

@<TRIPOS>ATOM
      1 C1          4.8241   -3.1067    0.0547 C.3       1 <0>         0.0703
      2 N1          3.5815   -2.3366   -0.0409 N.pl3     1 <0>        -0.5911
      3 C2          2.2955   -3.0308   -0.1430 C.3       1 <0>         0.0994
      4 C3          1.9603   -3.2695   -1.6167 C.3       1 <0>        -0.0989
      5 C4          0.6374   -3.9836   -1.7217 C.ar      1 <0>        -0.1017
      6 C5          0.5969   -5.3653   -1.7335 C.ar      1 <0>        -0.1097
      7 C6         -0.6170   -6.0204   -1.8249 C.ar      1 <0>        -0.1111
      8 C7         -1.7895   -5.2937   -1.9147 C.ar      1 <0>        -0.1099
      9 C8         -1.7485   -3.9120   -1.9086 C.ar      1 <0>        -0.1133
     10 C9         -0.5350   -3.2569   -1.8119 C.ar      1 <0>        -0.1203
     11 C10         3.6228   -0.9470   -0.0348 C.ar      1 <0>         0.4645
     12 C11         4.8511   -0.2970   -0.0425 C.ar      1 <0>        -0.2216
     13 C12         4.8825    1.0981   -0.0363 C.ar      1 <0>         0.1430
     14 C13         3.6682    1.7894   -0.0281 C.ar      1 <0>        -0.1761
     15 C14         2.4801    1.0684   -0.0149 C.ar      1 <0>         0.2528
     16 C15         1.1848    1.7900    0.0004 C.ar      1 <0>        -0.1220
     17 C16        -0.0126    1.0758    0.0080 C.ar      1 <0>        -0.0770
     18 C17        -1.2154    1.7496    0.0173 C.ar      1 <0>        -0.1385
     19 C18        -1.2350    3.1380    0.0302 C.ar      1 <0>         0.1589
     20 C19        -0.0441    3.8521    0.0222 C.ar      1 <0>        -0.1397
     21 C20         1.1618    3.1840    0.0076 C.ar      1 <0>        -0.0494
     22 O1         -2.4217    3.7991    0.0446 O.3       1 <0>        -0.4920
     23 C21         6.1737    1.8295   -0.0446 C.ar      1 <0>        -0.1035
     24 C22         7.3761    1.1254   -0.0531 C.ar      1 <0>        -0.0773
     25 C23         8.5740    1.8108   -0.0661 C.ar      1 <0>        -0.1203
     26 C24         8.5825    3.1940   -0.0593 C.ar      1 <0>        -0.0765
     27 C25         7.3919    3.8979   -0.0456 C.ar      1 <0>        -0.1196
     28 C26         6.1881    3.2228   -0.0382 C.ar      1 <0>        -0.0772
     29 H1          5.0521   -3.2999    1.1029 H         1 <0>         0.0835
     30 H2          4.7061   -4.0537   -0.4720 H         1 <0>         0.0982
     31 H3          5.6387   -2.5396   -0.3958 H         1 <0>         0.0895
     32 H4          2.3571   -3.9878    0.3752 H         1 <0>         0.1170
     33 H5          1.5159   -2.4204    0.3127 H         1 <0>         0.0751
     34 H6          1.8988   -2.3125   -2.1349 H         1 <0>         0.0741
     35 H7          2.7399   -3.8799   -2.0723 H         1 <0>         0.0920
     36 H8          1.5133   -5.9330   -1.6675 H         1 <0>         0.1246
     37 H9         -0.6490   -7.0999   -1.8300 H         1 <0>         0.1289
     38 H10        -2.7375   -5.8055   -1.9899 H         1 <0>         0.1285
     39 H11        -2.6645   -3.3442   -1.9791 H         1 <0>         0.1270
     40 H12        -0.5030   -2.1774   -1.8071 H         1 <0>         0.1151
     41 H13         5.7699   -0.8645   -0.0536 H         1 <0>         0.1811
     42 H14         3.6532    2.8693   -0.0273 H         1 <0>         0.1795
     43 H15         0.0021   -0.0041    0.0020 H         1 <0>         0.1204
     44 H16        -2.1433    1.1969    0.0190 H         1 <0>         0.1468
     45 H17        -0.0626    4.9319    0.0278 H         1 <0>         0.1498
     46 H18         2.0877    3.7399    0.0014 H         1 <0>         0.1445
     47 H19        -2.7737    3.9946   -0.8346 H         1 <0>         0.4071
     48 H20         7.3706    0.0455   -0.0539 H         1 <0>         0.1304
     49 H21         9.5065    1.2661   -0.0776 H         1 <0>         0.1371
     50 H22         9.5222    3.7263   -0.0650 H         1 <0>         0.1364
     51 H23         7.4042    4.9778   -0.0410 H         1 <0>         0.1377
     52 H24         5.2591    3.7734   -0.0279 H         1 <0>         0.1322
     53 N2          2.4221   -0.2997   -0.0207 N.ar      1 <0>        -0.5547
     54 H25         1.5295   -0.8072   -0.0149 H         1 <0>         0.4558
@<TRIPOS>BOND
     1    1    2 1
     2    1   29 1
     3    1   30 1
     4    1   31 1
     5    2    3 1
     6    2   11 1
     7    3    4 1
     8    3   32 1
     9    3   33 1
    10    4    5 1
    11    4   34 1
    12    4   35 1
    13    5   10 ar
    14    5    6 ar
    15    6    7 ar
    16    6   36 1
    17    7    8 ar
    18    7   37 1
    19    8    9 ar
    20    8   38 1
    21    9   10 ar
    22    9   39 1
    23   10   40 1
    24   11   12 ar
    25   11   53 ar
    26   12   13 ar
    27   12   41 1
    28   13   14 ar
    29   13   23 1
    30   14   15 ar
    31   14   42 1
    32   15   16 1
    33   15   53 ar
    34   16   21 ar
    35   16   17 ar
    36   17   18 ar
    37   17   43 1
    38   18   19 ar
    39   18   44 1
    40   19   20 ar
    41   19   22 1
    42   20   21 ar
    43   20   45 1
    44   21   46 1
    45   22   47 1
    46   23   28 ar
    47   23   24 ar
    48   24   25 ar
    49   24   48 1
    50   25   26 ar
    51   25   49 1
    52   26   27 ar
    53   26   50 1
    54   27   28 ar
    55   27   51 1
    56   28   52 1
    57   53   54 1
@<TRIPOS>MOLECULE
ZINC03815471
   53    55     0     0     0
SMALL
USER_CHARGES

@<TRIPOS>ATOM
      1 C1          0.2234   -4.1246   -3.1941 C.3       1 <0>        -0.1517
      2 C2          0.6179   -3.9956   -1.7215 C.3       1 <0>        -0.0941
      3 C3          0.7402   -5.3894   -1.1024 C.3       1 <0>        -0.1567
      4 C4          1.9609   -3.2705   -1.6148 C.3       1 <0>        -0.1404
      5 C5          2.2956   -3.0309   -0.1412 C.3       1 <0>         0.0911
      6 N1          3.5815   -2.3366   -0.0391 N.pl3     1 <0>        -0.5904
      7 C6          4.8241   -3.1067    0.0574 C.3       1 <0>         0.0707
      8 C7          3.6228   -0.9470   -0.0339 C.ar      1 <0>         0.4647
      9 C8          4.8511   -0.2970   -0.0421 C.ar      1 <0>        -0.2224
     10 C9          4.8825    1.0981   -0.0362 C.ar      1 <0>         0.1426
     11 C10         3.6683    1.7894   -0.0224 C.ar      1 <0>        -0.1766
     12 C11         2.4801    1.0684   -0.0149 C.ar      1 <0>         0.2527
     13 C12         1.1848    1.7900    0.0004 C.ar      1 <0>        -0.1220
     14 C13        -0.0126    1.0758    0.0080 C.ar      1 <0>        -0.0766
     15 C14        -1.2154    1.7496    0.0173 C.ar      1 <0>        -0.1388
     16 C15        -1.2350    3.1380    0.0302 C.ar      1 <0>         0.1586
     17 C16        -0.0441    3.8521    0.0222 C.ar      1 <0>        -0.1398
     18 C17         1.1618    3.1840    0.0076 C.ar      1 <0>        -0.0496
     19 O1         -2.4217    3.7991    0.0451 O.3       1 <0>        -0.4920
     20 C18         6.1737    1.8295   -0.0441 C.ar      1 <0>        -0.1034
     21 C19         7.3761    1.1254   -0.0522 C.ar      1 <0>        -0.0775
     22 C20         8.5740    1.8108   -0.0658 C.ar      1 <0>        -0.1203
     23 C21         8.5825    3.1940   -0.0594 C.ar      1 <0>        -0.0767
     24 C22         7.3919    3.8979   -0.0451 C.ar      1 <0>        -0.1196
     25 C23         6.1881    3.2228   -0.0377 C.ar      1 <0>        -0.0773
     26 H1          0.9864   -4.6928   -3.7262 H         1 <0>         0.0596
     27 H2         -0.7334   -4.6412   -3.2701 H         1 <0>         0.0645
     28 H3          0.1363   -3.1316   -3.6352 H         1 <0>         0.0552
     29 H4         -0.1450   -3.4274   -1.1894 H         1 <0>         0.0720
     30 H5          1.0213   -5.2976   -0.0532 H         1 <0>         0.0547
     31 H6         -0.2166   -5.9060   -1.1783 H         1 <0>         0.0649
     32 H7          1.5032   -5.9577   -1.6344 H         1 <0>         0.0609
     33 H8          1.8996   -2.3139   -2.1337 H         1 <0>         0.0658
     34 H9          2.7407   -3.8813   -2.0698 H         1 <0>         0.0840
     35 H10         2.3569   -3.9875    0.3776 H         1 <0>         0.1170
     36 H11         1.5158   -2.4202    0.3137 H         1 <0>         0.0729
     37 H12         5.0517   -3.2991    1.1059 H         1 <0>         0.0830
     38 H13         4.7063   -4.0540   -0.4686 H         1 <0>         0.0978
     39 H14         5.6388   -2.5398   -0.3931 H         1 <0>         0.0889
     40 H15         5.7699   -0.8645   -0.0531 H         1 <0>         0.1806
     41 H16         3.6533    2.8693   -0.0179 H         1 <0>         0.1793
     42 H17         0.0021   -0.0041    0.0020 H         1 <0>         0.1208
     43 H18        -2.1433    1.1970    0.0187 H         1 <0>         0.1468
     44 H19        -0.0626    4.9319    0.0278 H         1 <0>         0.1498
     45 H20         2.0877    3.7399    0.0014 H         1 <0>         0.1444
     46 H21        -2.7738    3.9949   -0.8340 H         1 <0>         0.4071
     47 H22         7.3706    0.0455   -0.0527 H         1 <0>         0.1303
     48 H23         9.5065    1.2661   -0.0769 H         1 <0>         0.1371
     49 H24         9.5222    3.7263   -0.0658 H         1 <0>         0.1364
     50 H25         7.4042    4.9778   -0.0401 H         1 <0>         0.1377
     51 H26         5.2591    3.7734   -0.0273 H         1 <0>         0.1322
     52 N2          2.4221   -0.2998   -0.0146 N.ar      1 <0>        -0.5544
     53 H27         1.5297   -0.8073   -0.0007 H         1 <0>         0.4559
@<TRIPOS>BOND
     1    1    2 1
     2    1   26 1
     3    1   27 1
     4    1   28 1
     5    2    3 1
     6    2    4 1
     7    2   29 1
     8    3   30 1
     9    3   31 1
    10    3   32 1
    11    4    5 1
    12    4   33 1
    13    4   34 1
    14    5    6 1
    15    5   35 1
    16    5   36 1
    17    6    7 1
    18    6    8 1
    19    7   37 1
    20    7   38 1
    21    7   39 1
    22    8    9 ar
    23    8   52 ar
    24    9   10 ar
    25    9   40 1
    26   10   11 ar
    27   10   20 1
    28   11   12 ar
    29   11   41 1
    30   12   13 1
    31   12   52 ar
    32   13   18 ar
    33   13   14 ar
    34   14   15 ar
    35   14   42 1
    36   15   16 ar
    37   15   43 1
    38   16   17 ar
    39   16   19 1
    40   17   18 ar
    41   17   44 1
    42   18   45 1
    43   19   46 1
    44   20   25 ar
    45   20   21 ar
    46   21   22 ar
    47   21   47 1
    48   22   23 ar
    49   22   48 1
    50   23   24 ar
    51   23   49 1
    52   24   25 ar
    53   24   50 1
    54   25   51 1
    55   52   53 1
@<TRIPOS>MOLECULE
ZINC03815472
   57    60     0     0     0
SMALL
USER_CHARGES

@<TRIPOS>ATOM
      1 C1         -0.0960    5.3545    0.0312 C.3       1 <0>        -0.1292
      2 C2         -0.0660    3.8478    0.0234 C.ar      1 <0>        -0.0476
      3 C3         -1.2467    3.1326    0.0308 C.ar      1 <0>        -0.1181
      4 C4         -1.2206    1.7499    0.0174 C.ar      1 <0>        -0.0818
      5 C5         -0.0126    1.0758    0.0080 C.ar      1 <0>        -0.1224
      6 C6          1.1737    1.7807    0.0004 C.ar      1 <0>        -0.0800
      7 C7          1.1533    3.1741    0.0081 C.ar      1 <0>        -0.1057
      8 C8          2.4259    3.9376   -0.0004 C.ar      1 <0>         0.1430
      9 C9          2.6360    4.9684   -0.9201 C.ar      1 <0>        -0.1680
     10 C10         3.8390    5.6638   -0.8925 C.ar      1 <0>         0.2484
     11 C11         4.6219    4.3767    0.8677 C.ar      1 <0>         0.4628
     12 C12         3.4442    3.6399    0.9060 C.ar      1 <0>        -0.2105
     13 N1          5.6419    4.0877    1.7671 N.pl3     1 <0>        -0.5898
     14 C13         5.5170    2.9433    2.6732 C.3       1 <0>         0.0696
     15 C14         6.8416    4.9274    1.8086 C.3       1 <0>         0.0991
     16 C15         6.6318    6.0675    2.8072 C.3       1 <0>        -0.0991
     17 C16         7.8659    6.9313    2.8499 C.ar      1 <0>        -0.1019
     18 C17         8.8776    6.6472    3.7481 C.ar      1 <0>        -0.1097
     19 C18        10.0118    7.4367    3.7840 C.ar      1 <0>        -0.1111
     20 C19        10.1299    8.5162    2.9286 C.ar      1 <0>        -0.1098
     21 C20         9.1157    8.8037    2.0344 C.ar      1 <0>        -0.1132
     22 C21         7.9838    8.0111    1.9949 C.ar      1 <0>        -0.1202
     23 C22         4.0724    6.7636   -1.8593 C.ar      1 <0>        -0.1217
     24 C23         3.0886    7.0965   -2.7895 C.ar      1 <0>        -0.0493
     25 C24         3.3066    8.1227   -3.6840 C.ar      1 <0>        -0.1396
     26 C25         4.5086    8.8179   -3.6659 C.ar      1 <0>         0.1591
     27 C26         5.4926    8.4849   -2.7444 C.ar      1 <0>        -0.1383
     28 C27         5.2784    7.4631   -1.8439 C.ar      1 <0>        -0.0772
     29 O1          4.7224    9.8254   -4.5516 O.3       1 <0>        -0.4921
     30 H1         -0.1133    5.7229   -0.9945 H         1 <0>         0.0804
     31 H2         -0.9880    5.6974    0.5555 H         1 <0>         0.0808
     32 H3          0.7915    5.7329    0.5384 H         1 <0>         0.0652
     33 H4         -2.1925    3.6538    0.0423 H         1 <0>         0.1354
     34 H5         -2.1468    1.1943    0.0184 H         1 <0>         0.1345
     35 H6          0.0021   -0.0041    0.0020 H         1 <0>         0.1352
     36 H7          2.1163    1.2535   -0.0111 H         1 <0>         0.1304
     37 H8          1.8723    5.2241   -1.6396 H         1 <0>         0.1804
     38 H9          3.3189    2.8465    1.6280 H         1 <0>         0.1824
     39 H10         5.9330    2.0556    2.1969 H         1 <0>         0.0838
     40 H11         6.0603    3.1492    3.5955 H         1 <0>         0.0984
     41 H12         4.4647    2.7738    2.9015 H         1 <0>         0.0909
     42 H13         7.6959    4.3255    2.1186 H         1 <0>         0.1174
     43 H14         7.0295    5.3419    0.8182 H         1 <0>         0.0751
     44 H15         5.7776    6.6694    2.4972 H         1 <0>         0.0742
     45 H16         6.4439    5.6530    3.7976 H         1 <0>         0.0922
     46 H17         8.7836    5.8063    4.4192 H         1 <0>         0.1245
     47 H18        10.8040    7.2124    4.4829 H         1 <0>         0.1289
     48 H19        11.0143    9.1353    2.9592 H         1 <0>         0.1285
     49 H20         9.2077    9.6473    1.3664 H         1 <0>         0.1272
     50 H21         7.1914    8.2356    1.2962 H         1 <0>         0.1152
     51 H22         2.1552    6.5534   -2.8068 H         1 <0>         0.1446
     52 H23         2.5431    8.3840   -4.4018 H         1 <0>         0.1498
     53 H24         6.4266    9.0271   -2.7330 H         1 <0>         0.1468
     54 H25         6.0441    7.2045   -1.1275 H         1 <0>         0.1202
     55 H26         5.1265    9.5396   -5.3823 H         1 <0>         0.4074
     56 N2          4.8536    5.3915   -0.0140 N.ar      1 <0>        -0.5516
     57 H27         5.7346    5.9188   -0.0187 H         1 <0>         0.4561
@<TRIPOS>BOND
     1    1    2 1
     2    1   30 1
     3    1   31 1
     4    1   32 1
     5    2    7 ar
     6    2    3 ar
     7    3    4 ar
     8    3   33 1
     9    4    5 ar
    10    4   34 1
    11    5    6 ar
    12    5   35 1
    13    6    7 ar
    14    6   36 1
    15    7    8 1
    16    8   12 ar
    17    8    9 ar
    18    9   10 ar
    19    9   37 1
    20   10   23 1
    21   10   56 ar
    22   11   12 ar
    23   11   13 1
    24   11   56 ar
    25   12   38 1
    26   13   14 1
    27   13   15 1
    28   14   39 1
    29   14   40 1
    30   14   41 1
    31   15   16 1
    32   15   42 1
    33   15   43 1
    34   16   17 1
    35   16   44 1
    36   16   45 1
    37   17   22 ar
    38   17   18 ar
    39   18   19 ar
    40   18   46 1
    41   19   20 ar
    42   19   47 1
    43   20   21 ar
    44   20   48 1
    45   21   22 ar
    46   21   49 1
    47   22   50 1
    48   23   28 ar
    49   23   24 ar
    50   24   25 ar
    51   24   51 1
    52   25   26 ar
    53   25   52 1
    54   26   27 ar
    55   26   29 1
    56   27   28 ar
    57   27   53 1
    58   28   54 1
    59   29   55 1
    60   56   57 1
@<TRIPOS>MOLECULE
ZINC03815473
   53    55     0     0     0
SMALL
USER_CHARGES

@<TRIPOS>ATOM
      1 C1         -3.7866    3.9685    3.0384 C.3       1 <0>        -0.1574
      2 C2         -3.2357    3.4703    1.7008 C.3       1 <0>        -0.1266
      3 C3         -1.9220    2.7224    1.9370 C.3       1 <0>        -0.1502
      4 C4         -1.3711    2.2242    0.5994 C.3       1 <0>         0.0856
      5 N1         -0.1133    1.5081    0.8256 N.pl3     1 <0>        -0.5927
      6 C5         -0.1271    0.0651    1.0780 C.3       1 <0>         0.0718
      7 C6          1.0940    2.1969    0.7950 C.ar      1 <0>         0.4510
      8 C7          2.2880    1.4937    0.9007 C.ar      1 <0>        -0.2224
      9 C8          3.4948    2.1937    0.8690 C.ar      1 <0>         0.1394
     10 C9          3.4527    3.5835    0.7313 C.ar      1 <0>        -0.1778
     11 C10         2.2189    4.2157    0.6313 C.ar      1 <0>         0.2473
     12 C11         2.1604    5.6901    0.4848 C.ar      1 <0>        -0.1172
     13 C12         3.3248    6.4497    0.5931 C.ar      1 <0>        -0.0475
     14 C13         3.2680    7.8197    0.4511 C.ar      1 <0>        -0.1415
     15 C14         2.0511    8.4445    0.2108 C.ar      1 <0>         0.1611
     16 C15         0.8893    7.6914    0.1081 C.ar      1 <0>        -0.1384
     17 C16         0.9405    6.3201    0.2440 C.ar      1 <0>        -0.0474
     18 C17        -0.3211    5.5034    0.1319 C.3       1 <0>        -0.1794
     19 O1          1.9976    9.7952    0.0765 O.3       1 <0>        -0.4911
     20 C18         4.7910    1.4795    0.9785 C.ar      1 <0>        -0.1019
     21 C19         4.8159    0.0936    1.1207 C.ar      1 <0>        -0.0785
     22 C20         6.0245   -0.5661    1.2157 C.ar      1 <0>        -0.1201
     23 C21         7.2091    0.1472    1.1825 C.ar      1 <0>        -0.0779
     24 C22         7.1901    1.5236    1.0473 C.ar      1 <0>        -0.1194
     25 C23         5.9874    2.1929    0.9452 C.ar      1 <0>        -0.0783
     26 H1         -3.9658    3.1184    3.6968 H         1 <0>         0.0602
     27 H2         -3.0641    4.6406    3.5013 H         1 <0>         0.0548
     28 H3         -4.7225    4.5013    2.8701 H         1 <0>         0.0652
     29 H4         -3.0565    4.3203    1.0424 H         1 <0>         0.0644
     30 H5         -3.9583    2.7982    1.2379 H         1 <0>         0.0755
     31 H6         -2.1012    1.8724    2.5954 H         1 <0>         0.0874
     32 H7         -1.1995    3.3945    2.3999 H         1 <0>         0.0619
     33 H8         -1.1920    3.0743   -0.0590 H         1 <0>         0.0714
     34 H9         -2.0937    1.5521    0.1365 H         1 <0>         0.1171
     35 H10        -0.2061   -0.1155    2.1501 H         1 <0>         0.0812
     36 H11        -0.9803   -0.3845    0.5700 H         1 <0>         0.0977
     37 H12         0.7948   -0.3784    0.7019 H         1 <0>         0.0887
     38 H13         2.2819    0.4189    1.0065 H         1 <0>         0.1783
     39 H14         4.3663    4.1587    0.7032 H         1 <0>         0.1777
     40 H15         4.2707    5.9647    0.7840 H         1 <0>         0.1462
     41 H16         4.1701    8.4082    0.5308 H         1 <0>         0.1506
     42 H17        -0.0557    8.1802   -0.0780 H         1 <0>         0.1478
     43 H18        -0.7081    5.2939    1.1291 H         1 <0>         0.1021
     44 H19        -1.0653    6.0607   -0.4369 H         1 <0>         0.1195
     45 H20        -0.1023    4.5650   -0.3775 H         1 <0>         0.0935
     46 H21         1.8524   10.2677    0.9077 H         1 <0>         0.4072
     47 H22         3.8914   -0.4637    1.1515 H         1 <0>         0.1301
     48 H23         6.0451   -1.6407    1.3211 H         1 <0>         0.1368
     49 H24         8.1525   -0.3726    1.2622 H         1 <0>         0.1360
     50 H25         8.1180    2.0756    1.0212 H         1 <0>         0.1375
     51 H26         5.9736    3.2676    0.8392 H         1 <0>         0.1321
     52 N2          1.0215    3.5517    0.6536 N.ar      1 <0>        -0.5762
     53 H27         0.1241    4.0435    0.5690 H         1 <0>         0.4648
@<TRIPOS>BOND
     1    1    2 1
     2    1   26 1
     3    1   27 1
     4    1   28 1
     5    2    3 1
     6    2   29 1
     7    2   30 1
     8    3    4 1
     9    3   31 1
    10    3   32 1
    11    4    5 1
    12    4   33 1
    13    4   34 1
    14    5    6 1
    15    5    7 1
    16    6   35 1
    17    6   36 1
    18    6   37 1
    19    7    8 ar
    20    7   52 ar
    21    8    9 ar
    22    8   38 1
    23    9   10 ar
    24    9   20 1
    25   10   11 ar
    26   10   39 1
    27   11   12 1
    28   11   52 ar
    29   12   17 ar
    30   12   13 ar
    31   13   14 ar
    32   13   40 1
    33   14   15 ar
    34   14   41 1
    35   15   16 ar
    36   15   19 1
    37   16   17 ar
    38   16   42 1
    39   17   18 1
    40   18   43 1
    41   18   44 1
    42   18   45 1
    43   19   46 1
    44   20   25 ar
    45   20   21 ar
    46   21   22 ar
    47   21   47 1
    48   22   23 ar
    49   22   48 1
    50   23   24 ar
    51   23   49 1
    52   24   25 ar
    53   24   50 1
    54   25   51 1
    55   52   53 1
@<TRIPOS>MOLECULE
ZINC03815474
   56    59     0     0     0
SMALL
USER_CHARGES

@<TRIPOS>ATOM
      1 C1          0.8197    1.3266    0.6670 C.3       1 <0>        -0.1872
      2 C2          0.4966   -0.0964    0.2070 C.3       1 <0>         0.1081
      3 N1          0.9515   -0.2785   -1.1736 N.pl3     1 <0>        -0.5807
      4 C3          0.0498    0.0239   -2.2879 C.3       1 <0>         0.1506
      5 C4          0.3068    1.4264   -2.7757 C.ar      1 <0>         0.0847
      6 C5          1.1686    1.6336   -3.8364 C.ar      1 <0>        -0.1691
      7 C6          1.3942    2.9272   -4.2807 C.ar      1 <0>        -0.0638
      8 C7          0.7499    3.9697   -3.6318 C.ar      1 <0>        -0.1516
      9 C8         -0.0940    3.6860   -2.5750 C.ar      1 <0>         0.1125
     10 N2         -0.2888    2.4421   -2.1824 N.ar      1 <0>        -0.4592
     11 C9          2.2390   -0.7383   -1.4263 C.ar      1 <0>         0.4636
     12 C10         3.1495   -0.8375   -0.3812 C.ar      1 <0>        -0.2135
     13 C11         4.4395   -1.3000   -0.6445 C.ar      1 <0>         0.1399
     14 C12         4.7651   -1.6470   -1.9583 C.ar      1 <0>        -0.1642
     15 C13         3.7995   -1.5202   -2.9499 C.ar      1 <0>         0.2496
     16 C14         4.1322   -1.8850   -4.3481 C.ar      1 <0>        -0.1328
     17 C15         5.2947   -1.3934   -4.9406 C.ar      1 <0>        -0.0491
     18 C16         5.6040   -1.7386   -6.2389 C.ar      1 <0>        -0.1470
     19 C17         4.7538   -2.5666   -6.9601 C.ar      1 <0>         0.1584
     20 C18         3.5926   -3.0531   -6.3748 C.ar      1 <0>        -0.1432
     21 C19         3.2805   -2.7156   -5.0747 C.ar      1 <0>        -0.0386
     22 C20         2.0202   -3.2445   -4.4399 C.3       1 <0>        -0.1383
     23 O1          5.0586   -2.9009   -8.2410 O.3       1 <0>        -0.4923
     24 C21         5.4408   -1.4209    0.4441 C.ar      1 <0>        -0.1038
     25 C22         5.1021   -1.0659    1.7482 C.ar      1 <0>        -0.0773
     26 C23         6.0354   -1.1862    2.7579 C.ar      1 <0>        -0.1203
     27 C24         7.3087   -1.6465    2.4749 C.ar      1 <0>        -0.0762
     28 C25         7.6521   -1.9949    1.1811 C.ar      1 <0>        -0.1197
     29 C26         6.7248   -1.8845    0.1648 C.ar      1 <0>        -0.0766
     30 H1          1.8961    1.4898    0.6146 H         1 <0>         0.0570
     31 H2          0.3119    2.0417    0.0198 H         1 <0>         0.0839
     32 H3          0.4812    1.4621    1.6942 H         1 <0>         0.0828
     33 H4          1.0043   -0.8116    0.8542 H         1 <0>         0.0934
     34 H5         -0.5799   -0.2596    0.2593 H         1 <0>         0.1070
     35 H6          0.2265   -0.6814   -3.1000 H         1 <0>         0.0871
     36 H7         -0.9838   -0.0603   -1.9521 H         1 <0>         0.1329
     37 H8          1.6572    0.7979   -4.3153 H         1 <0>         0.1187
     38 H9          2.0597    3.1190   -5.1095 H         1 <0>         0.1427
     39 H10         0.9060    4.9905   -3.9482 H         1 <0>         0.1467
     40 H11        -0.5995    4.4923   -2.0643 H         1 <0>         0.1679
     41 H12         2.8625   -0.5598    0.6223 H         1 <0>         0.1805
     42 H13         5.7537   -2.0085   -2.2000 H         1 <0>         0.1800
     43 H14         5.9543   -0.7461   -4.3817 H         1 <0>         0.1423
     44 H15         6.5064   -1.3614   -6.6970 H         1 <0>         0.1469
     45 H16         2.9330   -3.6963   -6.9383 H         1 <0>         0.1452
     46 H17         1.2096   -2.5320   -4.5931 H         1 <0>         0.0726
     47 H18         1.7563   -4.1986   -4.8961 H         1 <0>         0.0952
     48 H19         2.1830   -3.3854   -3.3714 H         1 <0>         0.0696
     49 H20         4.7043   -2.2902   -8.9018 H         1 <0>         0.4054
     50 H21         4.1097   -0.7019    1.9694 H         1 <0>         0.1302
     51 H22         5.7725   -0.9159    3.7699 H         1 <0>         0.1371
     52 H23         8.0374   -1.7345    3.2672 H         1 <0>         0.1363
     53 H24         8.6475   -2.3545    0.9658 H         1 <0>         0.1377
     54 H25         6.9938   -2.1571   -0.8450 H         1 <0>         0.1330
     55 N3          2.5256   -1.0749   -2.7168 N.ar      1 <0>        -0.5500
     56 H26         1.8290   -0.9991   -3.4673 H         1 <0>         0.4549
@<TRIPOS>BOND
     1    1    2 1
     2    1   30 1
     3    1   31 1
     4    1   32 1
     5    2    3 1
     6    2   33 1
     7    2   34 1
     8    3    4 1
     9    3   11 1
    10    4    5 1
    11    4   35 1
    12    4   36 1
    13    5   10 ar
    14    5    6 ar
    15    6    7 ar
    16    6   37 1
    17    7    8 ar
    18    7   38 1
    19    8    9 ar
    20    8   39 1
    21    9   10 ar
    22    9   40 1
    23   11   12 ar
    24   11   55 ar
    25   12   13 ar
    26   12   41 1
    27   13   14 ar
    28   13   24 1
    29   14   15 ar
    30   14   42 1
    31   15   16 1
    32   15   55 ar
    33   16   21 ar
    34   16   17 ar
    35   17   18 ar
    36   17   43 1
    37   18   19 ar
    38   18   44 1
    39   19   20 ar
    40   19   23 1
    41   20   21 ar
    42   20   45 1
    43   21   22 1
    44   22   46 1
    45   22   47 1
    46   22   48 1
    47   23   49 1
    48   24   29 ar
    49   24   25 ar
    50   25   26 ar
    51   25   50 1
    52   26   27 ar
    53   26   51 1
    54   27   28 ar
    55   27   52 1
    56   28   29 ar
    57   28   53 1
    58   29   54 1
    59   55   56 1
@<TRIPOS>MOLECULE
ZINC03815475
   56    59     0     0     0
SMALL
USER_CHARGES

@<TRIPOS>ATOM
      1 C1          0.9447   11.2941    1.4545 C.3       1 <0>        -0.1777
      2 C2          2.0716   12.0647    0.8163 C.ar      1 <0>        -0.0485
      3 C3          2.0024   13.4388    0.7234 C.ar      1 <0>        -0.1387
      4 C4          3.0402   14.1494    0.1356 C.ar      1 <0>         0.1601
      5 C5          4.1508   13.4792   -0.3606 C.ar      1 <0>        -0.1415
      6 C6          4.2279   12.1061   -0.2664 C.ar      1 <0>        -0.0481
      7 C7          3.1848   11.3891    0.3187 C.ar      1 <0>        -0.1158
      8 C8          3.2623    9.9116    0.4169 C.ar      1 <0>         0.2461
      9 C9          4.3068    9.2354   -0.2032 C.ar      1 <0>        -0.1766
     10 C10         4.3687    7.8434   -0.1038 C.ar      1 <0>         0.1390
     11 C11         3.3722    7.1851    0.6189 C.ar      1 <0>        -0.2195
     12 C12         2.3602    7.9307    1.2106 C.ar      1 <0>         0.4503
     13 N1          1.3634    7.2838    1.9324 N.pl3     1 <0>        -0.5940
     14 C13         0.2334    8.0475    2.4672 C.3       1 <0>         0.0506
     15 C14         1.4432    5.8385    2.1582 C.3       1 <0>         0.1159
     16 C15         0.7373    5.1043    1.0165 C.3       1 <0>        -0.0877
     17 C16         0.8194    3.6175    1.2487 C.ar      1 <0>         0.1157
     18 C17        -0.3398    2.8650    1.2739 C.ar      1 <0>        -0.1632
     19 C18        -0.2529    1.4974    1.4830 C.ar      1 <0>        -0.0679
     20 C19         1.0015    0.9368    1.6706 C.ar      1 <0>        -0.1657
     21 C20         2.1161    1.7526    1.6328 C.ar      1 <0>         0.1065
     22 N2          1.9961    3.0496    1.4260 N.ar      1 <0>        -0.4864
     23 C21         5.4664    7.0831   -0.7511 C.ar      1 <0>        -0.1026
     24 C22         5.5169    5.6952   -0.6383 C.ar      1 <0>        -0.0755
     25 C23         6.5367    4.9925   -1.2476 C.ar      1 <0>        -0.1198
     26 C24         7.5141    5.6646   -1.9591 C.ar      1 <0>        -0.0782
     27 C25         7.4723    7.0428   -2.0691 C.ar      1 <0>        -0.1209
     28 C26         6.4536    7.7549   -1.4691 C.ar      1 <0>        -0.0786
     29 O1          2.9693   15.5030    0.0459 O.3       1 <0>        -0.4914
     30 H1          1.1922   11.0834    2.4949 H         1 <0>         0.1026
     31 H2          0.0300   11.8853    1.4112 H         1 <0>         0.1185
     32 H3          0.7969   10.3563    0.9191 H         1 <0>         0.0945
     33 H4          1.1402   13.9628    1.1087 H         1 <0>         0.1474
     34 H5          4.9565   14.0347   -0.8174 H         1 <0>         0.1501
     35 H6          5.0937   11.5858   -0.6487 H         1 <0>         0.1460
     36 H7          5.0603    9.7789   -0.7538 H         1 <0>         0.1773
     37 H8          3.3880    6.1097    0.7172 H         1 <0>         0.1814
     38 H9          0.4758    8.4015    3.4692 H         1 <0>         0.0841
     39 H10         0.0322    8.9005    1.8192 H         1 <0>         0.0664
     40 H11        -0.6486    7.4085    2.5111 H         1 <0>         0.1094
     41 H12         0.9596    5.5912    3.1032 H         1 <0>         0.1042
     42 H13         2.4891    5.5336    2.1945 H         1 <0>         0.1070
     43 H14         1.2210    5.3516    0.0715 H         1 <0>         0.0897
     44 H15        -0.3085    5.4091    0.9801 H         1 <0>         0.0893
     45 H16        -1.3007    3.3359    1.1277 H         1 <0>         0.1354
     46 H17        -1.1413    0.8836    1.5032 H         1 <0>         0.1397
     47 H18         1.1064   -0.1248    1.8396 H         1 <0>         0.1407
     48 H19         3.0970    1.3232    1.7739 H         1 <0>         0.1614
     49 H20         4.7567    5.1699   -0.0792 H         1 <0>         0.1336
     50 H21         6.5741    3.9163   -1.1648 H         1 <0>         0.1361
     51 H22         8.3126    5.1111   -2.4308 H         1 <0>         0.1351
     52 H23         8.2380    7.5625   -2.6259 H         1 <0>         0.1366
     53 H24         6.4216    8.8309   -1.5562 H         1 <0>         0.1314
     54 H25         3.3445   15.9677    0.8065 H         1 <0>         0.4070
     55 N3          2.2700    9.2894    1.1259 N.ar      1 <0>        -0.5750
     56 H26         1.5049    9.8133    1.5669 H         1 <0>         0.4642
@<TRIPOS>BOND
     1    1    2 1
     2    1   30 1
     3    1   31 1
     4    1   32 1
     5    2    7 ar
     6    2    3 ar
     7    3    4 ar
     8    3   33 1
     9    4    5 ar
    10    4   29 1
    11    5    6 ar
    12    5   34 1
    13    6    7 ar
    14    6   35 1
    15    7    8 1
    16    8    9 ar
    17    8   55 ar
    18    9   10 ar
    19    9   36 1
    20   10   11 ar
    21   10   23 1
    22   11   12 ar
    23   11   37 1
    24   12   13 1
    25   12   55 ar
    26   13   14 1
    27   13   15 1
    28   14   38 1
    29   14   39 1
    30   14   40 1
    31   15   16 1
    32   15   41 1
    33   15   42 1
    34   16   17 1
    35   16   43 1
    36   16   44 1
    37   17   22 ar
    38   17   18 ar
    39   18   19 ar
    40   18   45 1
    41   19   20 ar
    42   19   46 1
    43   20   21 ar
    44   20   47 1
    45   21   22 ar
    46   21   48 1
    47   23   28 ar
    48   23   24 ar
    49   24   25 ar
    50   24   49 1
    51   25   26 ar
    52   25   50 1
    53   26   27 ar
    54   26   51 1
    55   27   28 ar
    56   27   52 1
    57   28   53 1
    58   29   54 1
    59   55   56 1
@<TRIPOS>MOLECULE
ZINC03815476
   64    66     0     0     0
SMALL
USER_CHARGES

@<TRIPOS>ATOM
      1 C1         -5.0449   -5.3064    3.6417 C.3       1 <0>        -0.1534
      2 C2         -3.8032   -6.0240    3.1085 C.3       1 <0>         0.0587
      3 O1         -3.5839   -5.6487    1.7472 O.3       1 <0>        -0.3884
      4 C3         -2.4418   -6.2666    1.1507 C.3       1 <0>         0.0379
      5 C4         -2.3052   -5.7947   -0.2983 C.3       1 <0>         0.1118
      6 N1         -2.0233   -4.3573   -0.3192 N.pl3     1 <0>        -0.5685
      7 C5         -3.1269   -3.3950   -0.3677 C.3       1 <0>         0.0993
      8 C6         -3.4726   -3.0885   -1.8263 C.3       1 <0>         0.0381
      9 O2         -3.9732   -4.2699   -2.4555 O.3       1 <0>        -0.3822
     10 C7         -4.3280   -4.0915   -3.8282 C.3       1 <0>         0.0583
     11 C8         -4.8482   -5.4133   -4.3964 C.3       1 <0>        -0.1534
     12 C9         -0.7085   -3.9063   -0.2930 C.ar      1 <0>         0.4622
     13 C10         0.3330   -4.8245   -0.3525 C.ar      1 <0>        -0.2209
     14 C11         1.6495   -4.3624   -0.3256 C.ar      1 <0>         0.1399
     15 C12         1.8681   -2.9850   -0.2394 C.ar      1 <0>        -0.1683
     16 C13         0.7742   -2.1294   -0.1838 C.ar      1 <0>         0.2512
     17 C14         0.9924   -0.6656   -0.0917 C.ar      1 <0>        -0.1319
     18 C15         1.8939   -0.0382   -0.9508 C.ar      1 <0>        -0.0488
     19 C16         2.0943    1.3229   -0.8630 C.ar      1 <0>        -0.1471
     20 C17         1.3994    2.0691    0.0798 C.ar      1 <0>         0.1581
     21 C18         0.5012    1.4473    0.9367 C.ar      1 <0>        -0.1433
     22 C19         0.2964    0.0861    0.8537 C.ar      1 <0>        -0.0389
     23 C20        -0.6783   -0.5881    1.7844 C.3       1 <0>        -0.1360
     24 O3          1.5989    3.4102    0.1639 O.3       1 <0>        -0.4935
     25 C21         2.7894   -5.3106   -0.3866 C.ar      1 <0>        -0.1026
     26 C22         2.5548   -6.6818   -0.4665 C.ar      1 <0>        -0.0782
     27 C23         3.6187   -7.5588   -0.5288 C.ar      1 <0>        -0.1203
     28 C24         4.9160   -7.0796   -0.4999 C.ar      1 <0>        -0.0771
     29 C25         5.1546   -5.7198   -0.4148 C.ar      1 <0>        -0.1196
     30 C26         4.0982   -4.8334   -0.3583 C.ar      1 <0>        -0.0772
     31 H1         -5.2121   -5.5927    4.6801 H         1 <0>         0.0764
     32 H2         -4.8954   -4.2284    3.5816 H         1 <0>         0.0605
     33 H3         -5.9117   -5.5870    3.0433 H         1 <0>         0.0663
     34 H4         -3.9527   -7.1020    3.1686 H         1 <0>         0.0548
     35 H5         -2.9364   -5.7434    3.7069 H         1 <0>         0.0485
     36 H6         -2.5631   -7.3497    1.1702 H         1 <0>         0.0765
     37 H7         -1.5468   -5.9911    1.7085 H         1 <0>         0.0541
     38 H8         -3.2345   -5.9906   -0.8333 H         1 <0>         0.1240
     39 H9         -1.4884   -6.3322   -0.7800 H         1 <0>         0.1071
     40 H10        -3.9991   -3.8170    0.1315 H         1 <0>         0.1330
     41 H11        -2.8295   -2.4754    0.1362 H         1 <0>         0.0849
     42 H12        -4.2320   -2.3075   -1.8633 H         1 <0>         0.0771
     43 H13        -2.5776   -2.7501   -2.3484 H         1 <0>         0.0489
     44 H14        -5.1051   -3.3313   -3.9068 H         1 <0>         0.0546
     45 H15        -3.4507   -3.7739   -4.3919 H         1 <0>         0.0493
     46 H16        -5.7254   -5.7309   -3.8328 H         1 <0>         0.0667
     47 H17        -5.1188   -5.2773   -5.4435 H         1 <0>         0.0771
     48 H18        -4.0710   -6.1735   -4.3179 H         1 <0>         0.0630
     49 H19         0.1262   -5.8825   -0.4182 H         1 <0>         0.1785
     50 H20         2.8732   -2.5906   -0.2166 H         1 <0>         0.1788
     51 H21         2.4343   -0.6179   -1.6845 H         1 <0>         0.1425
     52 H22         2.7926    1.8093   -1.5279 H         1 <0>         0.1469
     53 H23        -0.0411    2.0309    1.6659 H         1 <0>         0.1449
     54 H24        -1.6461   -0.6815    1.2916 H         1 <0>         0.0711
     55 H25        -0.3061   -1.5789    2.0448 H         1 <0>         0.0703
     56 H26        -0.7879    0.0084    2.6901 H         1 <0>         0.0939
     57 H27         2.3060    3.6652    0.7722 H         1 <0>         0.4064
     58 H28         1.5424   -7.0573   -0.4843 H         1 <0>         0.1297
     59 H29         3.4381   -8.6215   -0.5956 H         1 <0>         0.1368
     60 H30         5.7456   -7.7697   -0.5442 H         1 <0>         0.1360
     61 H31         6.1695   -5.3509   -0.3929 H         1 <0>         0.1373
     62 H32         4.2856   -3.7718   -0.2926 H         1 <0>         0.1328
     63 N2         -0.5265   -2.5574   -0.2029 N.ar      1 <0>        -0.5516
     64 H33        -1.3162   -1.9032   -0.1524 H         1 <0>         0.4570
@<TRIPOS>BOND
     1    1    2 1
     2    1   31 1
     3    1   32 1
     4    1   33 1
     5    2    3 1
     6    2   34 1
     7    2   35 1
     8    3    4 1
     9    4    5 1
    10    4   36 1
    11    4   37 1
    12    5    6 1
    13    5   38 1
    14    5   39 1
    15    6    7 1
    16    6   12 1
    17    7    8 1
    18    7   40 1
    19    7   41 1
    20    8    9 1
    21    8   42 1
    22    8   43 1
    23    9   10 1
    24   10   11 1
    25   10   44 1
    26   10   45 1
    27   11   46 1
    28   11   47 1
    29   11   48 1
    30   12   13 ar
    31   12   63 ar
    32   13   14 ar
    33   13   49 1
    34   14   15 ar
    35   14   25 1
    36   15   16 ar
    37   15   50 1
    38   16   17 1
    39   16   63 ar
    40   17   22 ar
    41   17   18 ar
    42   18   19 ar
    43   18   51 1
    44   19   20 ar
    45   19   52 1
    46   20   21 ar
    47   20   24 1
    48   21   22 ar
    49   21   53 1
    50   22   23 1
    51   23   54 1
    52   23   55 1
    53   23   56 1
    54   24   57 1
    55   25   30 ar
    56   25   26 ar
    57   26   27 ar
    58   26   58 1
    59   27   28 ar
    60   27   59 1
    61   28   29 ar
    62   28   60 1
    63   29   30 ar
    64   29   61 1
    65   30   62 1
    66   63   64 1
@<TRIPOS>MOLECULE
ZINC03815477
   61    65     0     0     0
SMALL
USER_CHARGES

@<TRIPOS>ATOM
      1 C1          2.2561    3.7100   -4.3175 C.ar      1 <0>        -0.1174
      2 C2          3.3713    3.9997   -3.5506 C.ar      1 <0>        -0.1157
      3 C3          3.7198    3.1810   -2.4974 C.ar      1 <0>        -0.1054
      4 C4          2.9429    2.0550   -2.2049 C.ar      1 <0>        -0.0475
      5 C5          1.8206    1.7660   -2.9885 C.ar      1 <0>        -0.0994
      6 C6          1.4825    2.5976   -4.0350 C.ar      1 <0>        -0.1202
      7 C7          3.3074    1.1765   -1.0834 C.2       1 <0>        -0.0501
      8 C8          2.4788    1.0718   -0.0158 C.2       1 <0>        -0.0450
      9 C9          2.8832    0.2357    1.1356 C.ar      1 <0>        -0.0538
     10 C10         1.9449   -0.1729    2.0822 C.ar      1 <0>        -0.0896
     11 C11         2.3402   -0.9655    3.1393 C.ar      1 <0>        -0.1487
     12 C12         3.6679   -1.3557    3.2586 C.ar      1 <0>         0.1166
     13 C13         4.6005   -0.9528    2.3173 C.ar      1 <0>        -0.1411
     14 C14         4.2163   -0.1513    1.2642 C.ar      1 <0>        -0.0530
     15 C15         5.2300    0.3189    0.2546 C.3       1 <0>        -0.0819
     16 C16         4.5968    0.4027   -1.1315 C.3       1 <0>        -0.0800
     17 O1          4.0509   -2.1431    4.2973 O.3       1 <0>        -0.4984
     18 C17         1.1862    1.7911    0.0004 C.ar      1 <0>        -0.0485
     19 C18        -0.0126    1.0758    0.0080 C.ar      1 <0>        -0.0710
     20 C19        -1.2150    1.7496    0.0173 C.ar      1 <0>        -0.2000
     21 C20        -1.2348    3.1382    0.0297 C.ar      1 <0>         0.1123
     22 C21        -0.0443    3.8534    0.0222 C.ar      1 <0>        -0.1358
     23 C22         1.1621    3.1868    0.0076 C.ar      1 <0>        -0.0552
     24 O2         -2.4219    3.7988    0.0442 O.3       1 <0>        -0.3269
     25 C23        -3.6079    3.0016    0.0512 C.3       1 <0>         0.0267
     26 C24        -4.8358    3.9143    0.0673 C.3       1 <0>         0.0088
     27 C25        -4.8058    3.7847   -2.3638 C.3       1 <0>        -0.0118
     28 C26        -5.3948    4.6469   -3.5085 C.3       1 <0>        -0.1463
     29 C27        -6.5397    5.4148   -2.8089 C.3       1 <0>        -0.1468
     30 C28        -6.1812    5.3947   -1.3114 C.3       1 <0>        -0.0107
     31 H1          1.9884    4.3553   -5.1412 H         1 <0>         0.1210
     32 H2          3.9698    4.8696   -3.7775 H         1 <0>         0.1250
     33 H3          4.5904    3.4082   -1.9000 H         1 <0>         0.1245
     34 H4          1.2186    0.8959   -2.7720 H         1 <0>         0.1179
     35 H5          0.6143    2.3780   -4.6386 H         1 <0>         0.1188
     36 H6          0.9125    0.1298    1.9879 H         1 <0>         0.1271
     37 H7          1.6164   -1.2836    3.8751 H         1 <0>         0.1303
     38 H8          5.6319   -1.2577    2.4160 H         1 <0>         0.1336
     39 H9          6.0648   -0.3816    0.2283 H         1 <0>         0.0869
     40 H10         5.5947    1.3041    0.5450 H         1 <0>         0.0832
     41 H11         4.3971   -0.6048   -1.4963 H         1 <0>         0.0844
     42 H12         5.2884    0.8999   -1.8117 H         1 <0>         0.0849
     43 H13         3.9938   -3.0909    4.1143 H         1 <0>         0.3942
     44 H14         0.0021   -0.0041    0.0020 H         1 <0>         0.1311
     45 H15        -2.1429    1.1970    0.0187 H         1 <0>         0.1274
     46 H16        -0.0638    4.9332    0.0275 H         1 <0>         0.1323
     47 H17         2.0875    3.7436    0.0014 H         1 <0>         0.1327
     48 H18        -3.6311    2.3770   -0.8417 H         1 <0>         0.0859
     49 H19        -3.6145    2.3680    0.9381 H         1 <0>         0.1079
     50 H20        -5.7372    3.3089    0.1622 H         1 <0>         0.1464
     51 H21        -4.7679    4.5999    0.9120 H         1 <0>         0.1423
     52 H22        -3.7687    3.5231   -2.5738 H         1 <0>         0.1355
     53 H23        -5.4061    2.8881   -2.2095 H         1 <0>         0.1333
     54 H24        -5.7853    4.0146   -4.3059 H         1 <0>         0.1160
     55 H25        -4.6462    5.3385   -3.8949 H         1 <0>         0.0984
     56 H26        -7.4914    4.9105   -2.9769 H         1 <0>         0.1035
     57 H27        -6.5849    6.4410   -3.1734 H         1 <0>         0.1052
     58 H28        -6.9537    4.8672   -0.7517 H         1 <0>         0.1313
     59 H29        -6.0807    6.4145   -0.9400 H         1 <0>         0.1340
     60 N1         -4.9028    4.6898   -1.2078 N.4       1 <0>        -0.3958
     61 H30        -4.1309    5.3664   -1.2313 H         1 <0>         0.4365
@<TRIPOS>BOND
     1    1    6 ar
     2    1    2 ar
     3    1   31 1
     4    2    3 ar
     5    2   32 1
     6    3    4 ar
     7    3   33 1
     8    4    5 ar
     9    4    7 1
    10    5    6 ar
    11    5   34 1
    12    6   35 1
    13    7   16 1
    14    7    8 2
    15    8    9 1
    16    8   18 1
    17    9   14 ar
    18    9   10 ar
    19   10   11 ar
    20   10   36 1
    21   11   12 ar
    22   11   37 1
    23   12   13 ar
    24   12   17 1
    25   13   14 ar
    26   13   38 1
    27   14   15 1
    28   15   16 1
    29   15   39 1
    30   15   40 1
    31   16   41 1
    32   16   42 1
    33   17   43 1
    34   18   23 ar
    35   18   19 ar
    36   19   20 ar
    37   19   44 1
    38   20   21 ar
    39   20   45 1
    40   21   22 ar
    41   21   24 1
    42   22   23 ar
    43   22   46 1
    44   23   47 1
    45   24   25 1
    46   25   26 1
    47   25   48 1
    48   25   49 1
    49   26   50 1
    50   26   51 1
    51   26   60 1
    52   27   28 1
    53   27   52 1
    54   27   53 1
    55   27   60 1
    56   28   29 1
    57   28   54 1
    58   28   55 1
    59   29   30 1
    60   29   56 1
    61   29   57 1
    62   30   58 1
    63   30   59 1
    64   30   60 1
    65   60   61 1
@<TRIPOS>MOLECULE
ZINC03815478
   62    65     0     0     0
SMALL
USER_CHARGES

@<TRIPOS>ATOM
      1 C1          2.2526   -5.2337   -0.4518 C.3       1 <0>        -0.0886
      2 C2          1.4304   -4.0534   -0.9010 C.2       1 <0>        -0.1356
      3 C3          0.1581   -4.1023   -1.6208 C.ar      1 <0>        -0.1131
      4 C4         -0.6478   -5.1443   -2.0896 C.ar      1 <0>        -0.0468
      5 C5         -1.8121   -4.8611   -2.7440 C.ar      1 <0>        -0.1688
      6 C6         -2.2042   -3.5403   -2.9487 C.ar      1 <0>         0.1320
      7 C7         -1.4215   -2.4959   -2.4926 C.ar      1 <0>        -0.1627
      8 C8         -0.2323   -2.7650   -1.8239 C.ar      1 <0>         0.1234
      9 N1          0.7381   -1.9623   -1.2648 N.pl3     1 <0>        -0.4764
     10 C9          1.7323   -2.7440   -0.7200 C.2       1 <0>         0.1070
     11 C10         2.9411   -2.2338   -0.0385 C.ar      1 <0>        -0.0347
     12 C11         3.6710   -1.1848   -0.6003 C.ar      1 <0>        -0.0963
     13 C12         4.7943   -0.7081    0.0411 C.ar      1 <0>        -0.1420
     14 C13         5.2065   -1.2776    1.2386 C.ar      1 <0>         0.1137
     15 C14         4.4864   -2.3250    1.7977 C.ar      1 <0>        -0.1397
     16 C15         3.3588   -2.8035    1.1654 C.ar      1 <0>        -0.0803
     17 O1          6.3177   -0.8089    1.8647 O.3       1 <0>        -0.5005
     18 C16         0.7182   -0.4975   -1.2568 C.3       1 <0>         0.1035
     19 C17         0.0021   -0.0041    0.0020 C.3       1 <0>        -0.1371
     20 C18        -0.0187    1.5258    0.0104 C.3       1 <0>        -0.1163
     21 C19        -0.7348    2.0192    1.2692 C.3       1 <0>        -0.1170
     22 C20        -0.7556    3.5490    1.2776 C.3       1 <0>        -0.1479
     23 C21        -1.4717    4.0424    2.5364 C.3       1 <0>        -0.0005
     24 C22        -2.0440    6.0431    1.2724 C.3       1 <0>        -0.0087
     25 C23        -2.4750    7.4832    1.6477 C.3       1 <0>        -0.1483
     26 C24        -3.0225    7.3170    3.0839 C.3       1 <0>        -0.1474
     27 C25        -2.3761    6.0235    3.6135 C.3       1 <0>        -0.0103
     28 O2         -3.3664   -3.2759   -3.6022 O.3       1 <0>        -0.4984
     29 H1          2.9562   -5.5068   -1.2382 H         1 <0>         0.0681
     30 H2          2.8021   -4.9708    0.4521 H         1 <0>         0.0678
     31 H3          1.5943   -6.0773   -0.2443 H         1 <0>         0.0687
     32 H4         -0.3498   -6.1707   -1.9346 H         1 <0>         0.1298
     33 H5         -2.4338   -5.6670   -3.1052 H         1 <0>         0.1317
     34 H6         -1.7329   -1.4745   -2.6546 H         1 <0>         0.1222
     35 H7          3.3536   -0.7443   -1.5339 H         1 <0>         0.1261
     36 H8          5.3570    0.1064   -0.3906 H         1 <0>         0.1321
     37 H9          4.8104   -2.7655    2.7290 H         1 <0>         0.1355
     38 H10         2.7995   -3.6184    1.6007 H         1 <0>         0.1365
     39 H11         7.1351   -1.2524    1.5995 H         1 <0>         0.3969
     40 H12         0.1910   -0.1364   -2.1398 H         1 <0>         0.0865
     41 H13         1.7408   -0.1202   -1.2645 H         1 <0>         0.0932
     42 H14         0.5293   -0.3651    0.8851 H         1 <0>         0.0725
     43 H15        -1.0205   -0.3814    0.0098 H         1 <0>         0.0717
     44 H16         1.0039    1.9031    0.0027 H         1 <0>         0.0699
     45 H17        -0.5459    1.8868   -0.8726 H         1 <0>         0.0692
     46 H18        -1.7574    1.6419    1.2770 H         1 <0>         0.0746
     47 H19        -0.2076    1.6581    2.1523 H         1 <0>         0.0750
     48 H20         0.2670    3.9263    1.2699 H         1 <0>         0.0867
     49 H21        -1.2827    3.9101    0.3946 H         1 <0>         0.0872
     50 H22        -2.4943    3.6652    2.5442 H         1 <0>         0.1266
     51 H23        -0.9445    3.6814    3.4195 H         1 <0>         0.1306
     52 H24        -1.2774    6.0606    0.4977 H         1 <0>         0.1364
     53 H25        -2.9040    5.4556    0.9510 H         1 <0>         0.1329
     54 H26        -3.2560    7.8395    0.9761 H         1 <0>         0.1154
     55 H27        -1.6185    8.1574    1.6371 H         1 <0>         0.0979
     56 H28        -4.1078    7.2177    3.0660 H         1 <0>         0.1028
     57 H29        -2.7297    8.1664    3.7011 H         1 <0>         0.1046
     58 H30        -3.1484    5.2885    3.8405 H         1 <0>         0.1301
     59 H31        -1.7913    6.2397    4.5076 H         1 <0>         0.1328
     60 H32        -3.2681   -3.1893   -4.5603 H         1 <0>         0.3927
     61 N2         -1.5043    5.5359    2.5438 N.4       1 <0>        -0.3966
     62 H33        -0.5517    5.8927    2.6831 H         1 <0>         0.4296
@<TRIPOS>BOND
     1    1    2 1
     2    1   29 1
     3    1   30 1
     4    1   31 1
     5    2   10 2
     6    2    3 1
     7    3    8 ar
     8    3    4 ar
     9    4    5 ar
    10    4   32 1
    11    5    6 ar
    12    5   33 1
    13    6    7 ar
    14    6   28 1
    15    7    8 ar
    16    7   34 1
    17    8    9 1
    18    9   10 1
    19    9   18 1
    20   10   11 1
    21   11   16 ar
    22   11   12 ar
    23   12   13 ar
    24   12   35 1
    25   13   14 ar
    26   13   36 1
    27   14   15 ar
    28   14   17 1
    29   15   16 ar
    30   15   37 1
    31   16   38 1
    32   17   39 1
    33   18   19 1
    34   18   40 1
    35   18   41 1
    36   19   20 1
    37   19   42 1
    38   19   43 1
    39   20   21 1
    40   20   44 1
    41   20   45 1
    42   21   22 1
    43   21   46 1
    44   21   47 1
    45   22   23 1
    46   22   48 1
    47   22   49 1
    48   23   50 1
    49   23   51 1
    50   23   61 1
    51   24   25 1
    52   24   52 1
    53   24   53 1
    54   24   61 1
    55   25   26 1
    56   25   54 1
    57   25   55 1
    58   26   27 1
    59   26   56 1
    60   26   57 1
    61   27   58 1
    62   27   59 1
    63   27   61 1
    64   28   60 1
    65   61   62 1
